version 2
run General-0-20200127-18:24:25-3121
attr configname General
attr datetime 20200127-18:24:25
attr experiment General
attr inifile omnetpp.ini
attr iterationvars ""
attr iterationvarsf ""
attr measurement ""
attr network BgpNetwork
attr processid 3121
attr repetition 0
attr replication #0
attr resultdir results
attr runnumber 0
attr seedset 0
param **.arp.retryTimeout 1s
param **.arp.retryCount 5
param **.arp.cacheTimeout 1s
param **.tcp.typename "\"Tcp\""
param **.tcp.mss 1024
param **.tcp.advertisedWindow 14336
param **.tcp.tcpAlgorithmClass "\"TcpReno\""
param **.bgpConfig "xmldoc(\"BGPConfig.xml\")"
param *.visualizer.interfaceTableVisualizer.displayInterfaceTables true

scalar BgpNetwork.Frankfurt.bgp OPENMsgSent 11
scalar BgpNetwork.Frankfurt.bgp OPENMsgRecv 11
scalar BgpNetwork.Frankfurt.bgp KeepAliveMsgSent 11
scalar BgpNetwork.Frankfurt.bgp KeepAliveMsgRcv 11
scalar BgpNetwork.Frankfurt.bgp UpdateMsgSent 0
scalar BgpNetwork.Frankfurt.bgp UpdateMsgRcv 0
scalar BgpNetwork.Frankfurt.ipv4.ip packetDropAddressResolutionFailed:count 0
attr interpolationmode none
attr source packetDropReasonIsAddressResolutionFailed(packetDropped)
attr title "packet drop: address resolution failed, count"
scalar BgpNetwork.Frankfurt.ipv4.ip packetDropAddressResolutionFailed:sum(packetBytes) 0
attr interpolationmode none
attr source packetDropReasonIsAddressResolutionFailed(packetDropped)
attr title "packet drop: address resolution failed, sum(packetBytes)"
scalar BgpNetwork.Frankfurt.ipv4.ip packetDropHopLimitReached:count 0
attr interpolationmode none
attr source packetDropReasonIsHopLimitReached(packetDropped)
attr title "packet drop: hop limit reached, count"
scalar BgpNetwork.Frankfurt.ipv4.ip packetDropHopLimitReached:sum(packetBytes) 0
attr interpolationmode none
attr source packetDropReasonIsHopLimitReached(packetDropped)
attr title "packet drop: hop limit reached, sum(packetBytes)"
scalar BgpNetwork.Frankfurt.ipv4.ip packetDropForwardingDisabled:count 0
attr interpolationmode none
attr source packetDropReasonIsForwardingDisabled(packetDropped)
attr title "packet drop: forwarding disabled, count"
scalar BgpNetwork.Frankfurt.ipv4.ip packetDropForwardingDisabled:sum(packetBytes) 0
attr interpolationmode none
attr source packetDropReasonIsForwardingDisabled(packetDropped)
attr title "packet drop: forwarding disabled, sum(packetBytes)"
scalar BgpNetwork.Frankfurt.ipv4.ip packetDropNoInterfaceFound:count 0
attr interpolationmode none
attr source packetDropReasonIsNoInterfaceFound(packetDropped)
attr title "packet drop: no interface found, count"
scalar BgpNetwork.Frankfurt.ipv4.ip packetDropNoInterfaceFound:sum(packetBytes) 0
attr interpolationmode none
attr source packetDropReasonIsNoInterfaceFound(packetDropped)
attr title "packet drop: no interface found, sum(packetBytes)"
scalar BgpNetwork.Frankfurt.ipv4.ip packetDropNoRouteFound:count 0
attr interpolationmode none
attr source packetDropReasonIsNoRouteFound(packetDropped)
attr title "packet drop: no route found, count"
scalar BgpNetwork.Frankfurt.ipv4.ip packetDropNoRouteFound:sum(packetBytes) 0
attr interpolationmode none
attr source packetDropReasonIsNoRouteFound(packetDropped)
attr title "packet drop: no route found, sum(packetBytes)"
scalar BgpNetwork.Frankfurt.ipv4.ip packetDropUndefined:count 0
attr interpolationmode none
attr source packetDropReasonIsUndefined(packetDropped)
attr title "packet drop: undefined, count"
scalar BgpNetwork.Frankfurt.ipv4.ip packetDropUndefined:sum(packetBytes) 0
attr interpolationmode none
attr source packetDropReasonIsUndefined(packetDropped)
attr title "packet drop: undefined, sum(packetBytes)"
scalar BgpNetwork.Frankfurt.ipv4.arp arpResolutionFailed:count 0
attr title "ARP failed resolutions, count"
scalar BgpNetwork.Frankfurt.ipv4.arp arpResolutionCompleted:count 0
attr title "ARP completed resolutions, count"
scalar BgpNetwork.Frankfurt.ipv4.arp arpResolutionInitiated:count 0
attr title "ARP initiated resolutions, count"
scalar BgpNetwork.Frankfurt.ipv4.arp arpReplySent:count 0
attr source arpReplySent
attr title "ARP replies sent, count"
scalar BgpNetwork.Frankfurt.ipv4.arp arpReplySent:sum(packetBytes) 0
attr source arpReplySent
attr title "ARP replies sent, sum(packetBytes)"
scalar BgpNetwork.Frankfurt.ipv4.arp arpRequestSent:count 0
attr source arpRequestSent
attr title "ARP request sent, count"
scalar BgpNetwork.Frankfurt.ipv4.arp arpRequestSent:sum(packetBytes) 0
attr source arpRequestSent
attr title "ARP request sent, sum(packetBytes)"
scalar BgpNetwork.Frankfurt.ppp[0].ppp.queue packetPopped:count 6
attr interpolationmode none
attr title "packet popped, count"
scalar BgpNetwork.Frankfurt.ppp[0].ppp.queue packetPopped:sum(packetBytes) 3e+02
attr interpolationmode none
attr title "packet popped, sum(packetBytes)"
statistic BgpNetwork.Frankfurt.ppp[0].ppp.queue queueingTime:histogram
field count 6
field mean 0
field stddev 0
field min 0
field max 0
field sum 0
field sqrsum 0
attr interpolationmode none
attr source queueingTime(packetPopped)
attr title "queueing times, histogram"
attr unit s
bin	-inf	0
bin	-0.5	0
bin	-0.48	0
bin	-0.46	0
bin	-0.44	0
bin	-0.42	0
bin	-0.4	0
bin	-0.38	0
bin	-0.36	0
bin	-0.34	0
bin	-0.32	0
bin	-0.3	0
bin	-0.28	0
bin	-0.26	0
bin	-0.24	0
bin	-0.22	0
bin	-0.2	0
bin	-0.18	0
bin	-0.16	0
bin	-0.14	0
bin	-0.12	0
bin	-0.1	0
bin	-0.08	0
bin	-0.06	0
bin	-0.04	0
bin	-0.02	0
bin	0	6
bin	0.02	0
bin	0.04	0
bin	0.06	0
bin	0.08	0
bin	0.1	0
bin	0.12	0
bin	0.14	0
bin	0.16	0
bin	0.18	0
bin	0.2	0
bin	0.22	0
bin	0.24	0
bin	0.26	0
bin	0.28	0
bin	0.3	0
bin	0.32	0
bin	0.34	0
bin	0.36	0
bin	0.38	0
bin	0.4	0
bin	0.42	0
bin	0.44	0
bin	0.46	0
bin	0.48	0
bin	0.5	0
scalar BgpNetwork.Frankfurt.ppp[0].ppp.queue queueLength:max 1
attr interpolationmode sample-hold
attr source "count(packetPushed) - count(packetPopped) - count(packetRemoved) - count(packetDropped)"
attr title "queue length, max"
scalar BgpNetwork.Frankfurt.ppp[0].ppp.queue queueLength:timeavg 0
attr interpolationmode sample-hold
attr source "count(packetPushed) - count(packetPopped) - count(packetRemoved) - count(packetDropped)"
attr title "queue length, timeavg"
scalar BgpNetwork.Frankfurt.ppp[0].ppp.queue packetPushed:count 6
attr interpolationmode none
attr title "packet pushed, count"
scalar BgpNetwork.Frankfurt.ppp[0].ppp.queue packetPushed:sum(packetBytes) 3e+02
attr interpolationmode none
attr title "packet pushed, sum(packetBytes)"
scalar BgpNetwork.Frankfurt.ppp[0].ppp.queue packetDropQueueOverflow:count 0
attr interpolationmode none
attr source packetDropReasonIsQueueOverflow(packetDropped)
attr title "packet drops: queue overflow, count"
scalar BgpNetwork.Frankfurt.ppp[0].ppp.queue packetDropQueueOverflow:sum(packetBytes) 0
attr interpolationmode none
attr source packetDropReasonIsQueueOverflow(packetDropped)
attr title "packet drops: queue overflow, sum(packetBytes)"
scalar BgpNetwork.Frankfurt.ppp[0].ppp.queue packetRemoved:count 0
attr interpolationmode none
attr title "packets removed, count"
scalar BgpNetwork.Frankfurt.ppp[0].ppp.queue packetRemoved:sum(packetBytes) 0
attr interpolationmode none
attr title "packets removed, sum(packetBytes)"
scalar BgpNetwork.Frankfurt.ppp[0].ppp transmissionState:timeavg 4.4e-07
attr interpolationmode sample-hold
attr source transmissionStateChanged
attr title "tx state, timeavg"
scalar BgpNetwork.Frankfurt.ppp[0].ppp rxPkOk:count 7
attr interpolationmode none
attr source rxPkOk
attr title "packets received OK, count"
scalar BgpNetwork.Frankfurt.ppp[0].ppp rxPkOk:sum(packetBytes) 3.8e+02
attr interpolationmode none
attr source rxPkOk
attr title "packets received OK, sum(packetBytes)"
scalar BgpNetwork.Frankfurt.ppp[0].ppp txPk:count 6
attr interpolationmode none
attr source packetSentToLower
attr title "packets transmitted, count"
scalar BgpNetwork.Frankfurt.ppp[0].ppp txPk:sum(packetBytes) 3.4e+02
attr interpolationmode none
attr source packetSentToLower
attr title "packets transmitted, sum(packetBytes)"
scalar BgpNetwork.Frankfurt.ppp[0].ppp rcvdPkFromHl:count 6
attr interpolationmode none
attr source packetReceivedFromUpper
attr title "packets received from higher layer, count"
scalar BgpNetwork.Frankfurt.ppp[0].ppp rcvdPkFromHl:sum(packetBytes) 3e+02
attr interpolationmode none
attr source packetReceivedFromUpper
attr title "packets received from higher layer, sum(packetBytes)"
scalar BgpNetwork.Frankfurt.ppp[0].ppp passedUpPk:count 7
attr interpolationmode none
attr source packetSentToUpper
attr title "packets passed to higher layer, count"
scalar BgpNetwork.Frankfurt.ppp[0].ppp passedUpPk:sum(packetBytes) 3.3e+02
attr interpolationmode none
attr source packetSentToUpper
attr title "packets passed to higher layer, sum(packetBytes)"
scalar BgpNetwork.Frankfurt.ppp[0].ppp packetDropIncorrectlyReceived:count 0
attr interpolationmode none
attr source packetDropReasonIsIncorrectlyReceived(packetDropped)
attr title "packet drop: incorrectly received, count"
scalar BgpNetwork.Frankfurt.ppp[0].ppp packetDropIncorrectlyReceived:sum(packetBytes) 0
attr interpolationmode none
attr source packetDropReasonIsIncorrectlyReceived(packetDropped)
attr title "packet drop: incorrectly received, sum(packetBytes)"
scalar BgpNetwork.Frankfurt.ppp[0].ppp packetDropInterfaceDown:count 0
attr interpolationmode none
attr source packetDropReasonIsInterfaceDown(packetDropped)
attr title "packet drop: interface down, count"
scalar BgpNetwork.Frankfurt.ppp[0].ppp packetDropInterfaceDown:sum(packetBytes) 0
attr interpolationmode none
attr source packetDropReasonIsInterfaceDown(packetDropped)
attr title "packet drop: interface down, sum(packetBytes)"
scalar BgpNetwork.Frankfurt.ppp[1].ppp.queue packetPopped:count 7
attr interpolationmode none
attr title "packet popped, count"
scalar BgpNetwork.Frankfurt.ppp[1].ppp.queue packetPopped:sum(packetBytes) 3.3e+02
attr interpolationmode none
attr title "packet popped, sum(packetBytes)"
statistic BgpNetwork.Frankfurt.ppp[1].ppp.queue queueingTime:histogram
field count 7
field mean 5.4e-07
field stddev 1.4e-06
field min 0
field max 3.8e-06
field sum 3.8e-06
field sqrsum 1.4e-11
attr interpolationmode none
attr source queueingTime(packetPopped)
attr title "queueing times, histogram"
attr unit s
bin	-inf	0
bin	0	6
bin	1e-07	0
bin	2e-07	0
bin	3e-07	0
bin	4e-07	0
bin	5e-07	0
bin	6e-07	0
bin	7e-07	0
bin	8e-07	0
bin	9e-07	0
bin	1e-06	0
bin	1.1e-06	0
bin	1.2e-06	0
bin	1.3e-06	0
bin	1.4e-06	0
bin	1.5e-06	0
bin	1.6e-06	0
bin	1.7e-06	0
bin	1.8e-06	0
bin	1.9e-06	0
bin	2e-06	0
bin	2.1e-06	0
bin	2.2e-06	0
bin	2.3e-06	0
bin	2.4e-06	0
bin	2.5e-06	0
bin	2.6e-06	0
bin	2.7e-06	0
bin	2.8e-06	0
bin	2.9e-06	0
bin	3e-06	0
bin	3.1e-06	0
bin	3.2e-06	0
bin	3.3e-06	0
bin	3.4e-06	0
bin	3.5e-06	0
bin	3.6e-06	0
bin	3.7e-06	1
bin	3.8e-06	0
bin	3.9e-06	0
bin	4e-06	0
bin	4.1e-06	0
bin	4.2e-06	0
bin	4.3e-06	0
bin	4.4e-06	0
bin	4.5e-06	0
bin	4.6e-06	0
bin	4.7e-06	0
scalar BgpNetwork.Frankfurt.ppp[1].ppp.queue queueLength:max 1
attr interpolationmode sample-hold
attr source "count(packetPushed) - count(packetPopped) - count(packetRemoved) - count(packetDropped)"
attr title "queue length, max"
scalar BgpNetwork.Frankfurt.ppp[1].ppp.queue queueLength:timeavg 6.7e-08
attr interpolationmode sample-hold
attr source "count(packetPushed) - count(packetPopped) - count(packetRemoved) - count(packetDropped)"
attr title "queue length, timeavg"
scalar BgpNetwork.Frankfurt.ppp[1].ppp.queue packetPushed:count 7
attr interpolationmode none
attr title "packet pushed, count"
scalar BgpNetwork.Frankfurt.ppp[1].ppp.queue packetPushed:sum(packetBytes) 3.3e+02
attr interpolationmode none
attr title "packet pushed, sum(packetBytes)"
scalar BgpNetwork.Frankfurt.ppp[1].ppp.queue packetDropQueueOverflow:count 0
attr interpolationmode none
attr source packetDropReasonIsQueueOverflow(packetDropped)
attr title "packet drops: queue overflow, count"
scalar BgpNetwork.Frankfurt.ppp[1].ppp.queue packetDropQueueOverflow:sum(packetBytes) 0
attr interpolationmode none
attr source packetDropReasonIsQueueOverflow(packetDropped)
attr title "packet drops: queue overflow, sum(packetBytes)"
scalar BgpNetwork.Frankfurt.ppp[1].ppp.queue packetRemoved:count 0
attr interpolationmode none
attr title "packets removed, count"
scalar BgpNetwork.Frankfurt.ppp[1].ppp.queue packetRemoved:sum(packetBytes) 0
attr interpolationmode none
attr title "packets removed, sum(packetBytes)"
scalar BgpNetwork.Frankfurt.ppp[1].ppp transmissionState:timeavg 4.9e-07
attr interpolationmode sample-hold
attr source transmissionStateChanged
attr title "tx state, timeavg"
scalar BgpNetwork.Frankfurt.ppp[1].ppp rxPkOk:count 6
attr interpolationmode none
attr source rxPkOk
attr title "packets received OK, count"
scalar BgpNetwork.Frankfurt.ppp[1].ppp rxPkOk:sum(packetBytes) 3.4e+02
attr interpolationmode none
attr source rxPkOk
attr title "packets received OK, sum(packetBytes)"
scalar BgpNetwork.Frankfurt.ppp[1].ppp txPk:count 7
attr interpolationmode none
attr source packetSentToLower
attr title "packets transmitted, count"
scalar BgpNetwork.Frankfurt.ppp[1].ppp txPk:sum(packetBytes) 3.8e+02
attr interpolationmode none
attr source packetSentToLower
attr title "packets transmitted, sum(packetBytes)"
scalar BgpNetwork.Frankfurt.ppp[1].ppp rcvdPkFromHl:count 7
attr interpolationmode none
attr source packetReceivedFromUpper
attr title "packets received from higher layer, count"
scalar BgpNetwork.Frankfurt.ppp[1].ppp rcvdPkFromHl:sum(packetBytes) 3.3e+02
attr interpolationmode none
attr source packetReceivedFromUpper
attr title "packets received from higher layer, sum(packetBytes)"
scalar BgpNetwork.Frankfurt.ppp[1].ppp passedUpPk:count 6
attr interpolationmode none
attr source packetSentToUpper
attr title "packets passed to higher layer, count"
scalar BgpNetwork.Frankfurt.ppp[1].ppp passedUpPk:sum(packetBytes) 3e+02
attr interpolationmode none
attr source packetSentToUpper
attr title "packets passed to higher layer, sum(packetBytes)"
scalar BgpNetwork.Frankfurt.ppp[1].ppp packetDropIncorrectlyReceived:count 0
attr interpolationmode none
attr source packetDropReasonIsIncorrectlyReceived(packetDropped)
attr title "packet drop: incorrectly received, count"
scalar BgpNetwork.Frankfurt.ppp[1].ppp packetDropIncorrectlyReceived:sum(packetBytes) 0
attr interpolationmode none
attr source packetDropReasonIsIncorrectlyReceived(packetDropped)
attr title "packet drop: incorrectly received, sum(packetBytes)"
scalar BgpNetwork.Frankfurt.ppp[1].ppp packetDropInterfaceDown:count 0
attr interpolationmode none
attr source packetDropReasonIsInterfaceDown(packetDropped)
attr title "packet drop: interface down, count"
scalar BgpNetwork.Frankfurt.ppp[1].ppp packetDropInterfaceDown:sum(packetBytes) 0
attr interpolationmode none
attr source packetDropReasonIsInterfaceDown(packetDropped)
attr title "packet drop: interface down, sum(packetBytes)"
scalar BgpNetwork.Frankfurt.ppp[2].ppp.queue packetPopped:count 7
attr interpolationmode none
attr title "packet popped, count"
scalar BgpNetwork.Frankfurt.ppp[2].ppp.queue packetPopped:sum(packetBytes) 3.3e+02
attr interpolationmode none
attr title "packet popped, sum(packetBytes)"
statistic BgpNetwork.Frankfurt.ppp[2].ppp.queue queueingTime:histogram
field count 7
field mean 5.4e-07
field stddev 1.4e-06
field min 0
field max 3.8e-06
field sum 3.8e-06
field sqrsum 1.4e-11
attr interpolationmode none
attr source queueingTime(packetPopped)
attr title "queueing times, histogram"
attr unit s
bin	-inf	0
bin	0	6
bin	1e-07	0
bin	2e-07	0
bin	3e-07	0
bin	4e-07	0
bin	5e-07	0
bin	6e-07	0
bin	7e-07	0
bin	8e-07	0
bin	9e-07	0
bin	1e-06	0
bin	1.1e-06	0
bin	1.2e-06	0
bin	1.3e-06	0
bin	1.4e-06	0
bin	1.5e-06	0
bin	1.6e-06	0
bin	1.7e-06	0
bin	1.8e-06	0
bin	1.9e-06	0
bin	2e-06	0
bin	2.1e-06	0
bin	2.2e-06	0
bin	2.3e-06	0
bin	2.4e-06	0
bin	2.5e-06	0
bin	2.6e-06	0
bin	2.7e-06	0
bin	2.8e-06	0
bin	2.9e-06	0
bin	3e-06	0
bin	3.1e-06	0
bin	3.2e-06	0
bin	3.3e-06	0
bin	3.4e-06	0
bin	3.5e-06	0
bin	3.6e-06	0
bin	3.7e-06	1
bin	3.8e-06	0
bin	3.9e-06	0
bin	4e-06	0
bin	4.1e-06	0
bin	4.2e-06	0
bin	4.3e-06	0
bin	4.4e-06	0
bin	4.5e-06	0
bin	4.6e-06	0
bin	4.7e-06	0
scalar BgpNetwork.Frankfurt.ppp[2].ppp.queue queueLength:max 1
attr interpolationmode sample-hold
attr source "count(packetPushed) - count(packetPopped) - count(packetRemoved) - count(packetDropped)"
attr title "queue length, max"
scalar BgpNetwork.Frankfurt.ppp[2].ppp.queue queueLength:timeavg 7e-08
attr interpolationmode sample-hold
attr source "count(packetPushed) - count(packetPopped) - count(packetRemoved) - count(packetDropped)"
attr title "queue length, timeavg"
scalar BgpNetwork.Frankfurt.ppp[2].ppp.queue packetPushed:count 7
attr interpolationmode none
attr title "packet pushed, count"
scalar BgpNetwork.Frankfurt.ppp[2].ppp.queue packetPushed:sum(packetBytes) 3.3e+02
attr interpolationmode none
attr title "packet pushed, sum(packetBytes)"
scalar BgpNetwork.Frankfurt.ppp[2].ppp.queue packetDropQueueOverflow:count 0
attr interpolationmode none
attr source packetDropReasonIsQueueOverflow(packetDropped)
attr title "packet drops: queue overflow, count"
scalar BgpNetwork.Frankfurt.ppp[2].ppp.queue packetDropQueueOverflow:sum(packetBytes) 0
attr interpolationmode none
attr source packetDropReasonIsQueueOverflow(packetDropped)
attr title "packet drops: queue overflow, sum(packetBytes)"
scalar BgpNetwork.Frankfurt.ppp[2].ppp.queue packetRemoved:count 0
attr interpolationmode none
attr title "packets removed, count"
scalar BgpNetwork.Frankfurt.ppp[2].ppp.queue packetRemoved:sum(packetBytes) 0
attr interpolationmode none
attr title "packets removed, sum(packetBytes)"
scalar BgpNetwork.Frankfurt.ppp[2].ppp transmissionState:timeavg 4.9e-07
attr interpolationmode sample-hold
attr source transmissionStateChanged
attr title "tx state, timeavg"
scalar BgpNetwork.Frankfurt.ppp[2].ppp rxPkOk:count 6
attr interpolationmode none
attr source rxPkOk
attr title "packets received OK, count"
scalar BgpNetwork.Frankfurt.ppp[2].ppp rxPkOk:sum(packetBytes) 3.4e+02
attr interpolationmode none
attr source rxPkOk
attr title "packets received OK, sum(packetBytes)"
scalar BgpNetwork.Frankfurt.ppp[2].ppp txPk:count 7
attr interpolationmode none
attr source packetSentToLower
attr title "packets transmitted, count"
scalar BgpNetwork.Frankfurt.ppp[2].ppp txPk:sum(packetBytes) 3.8e+02
attr interpolationmode none
attr source packetSentToLower
attr title "packets transmitted, sum(packetBytes)"
scalar BgpNetwork.Frankfurt.ppp[2].ppp rcvdPkFromHl:count 7
attr interpolationmode none
attr source packetReceivedFromUpper
attr title "packets received from higher layer, count"
scalar BgpNetwork.Frankfurt.ppp[2].ppp rcvdPkFromHl:sum(packetBytes) 3.3e+02
attr interpolationmode none
attr source packetReceivedFromUpper
attr title "packets received from higher layer, sum(packetBytes)"
scalar BgpNetwork.Frankfurt.ppp[2].ppp passedUpPk:count 6
attr interpolationmode none
attr source packetSentToUpper
attr title "packets passed to higher layer, count"
scalar BgpNetwork.Frankfurt.ppp[2].ppp passedUpPk:sum(packetBytes) 3e+02
attr interpolationmode none
attr source packetSentToUpper
attr title "packets passed to higher layer, sum(packetBytes)"
scalar BgpNetwork.Frankfurt.ppp[2].ppp packetDropIncorrectlyReceived:count 0
attr interpolationmode none
attr source packetDropReasonIsIncorrectlyReceived(packetDropped)
attr title "packet drop: incorrectly received, count"
scalar BgpNetwork.Frankfurt.ppp[2].ppp packetDropIncorrectlyReceived:sum(packetBytes) 0
attr interpolationmode none
attr source packetDropReasonIsIncorrectlyReceived(packetDropped)
attr title "packet drop: incorrectly received, sum(packetBytes)"
scalar BgpNetwork.Frankfurt.ppp[2].ppp packetDropInterfaceDown:count 0
attr interpolationmode none
attr source packetDropReasonIsInterfaceDown(packetDropped)
attr title "packet drop: interface down, count"
scalar BgpNetwork.Frankfurt.ppp[2].ppp packetDropInterfaceDown:sum(packetBytes) 0
attr interpolationmode none
attr source packetDropReasonIsInterfaceDown(packetDropped)
attr title "packet drop: interface down, sum(packetBytes)"
scalar BgpNetwork.Frankfurt.ppp[3].ppp.queue packetPopped:count 7
attr interpolationmode none
attr title "packet popped, count"
scalar BgpNetwork.Frankfurt.ppp[3].ppp.queue packetPopped:sum(packetBytes) 3.3e+02
attr interpolationmode none
attr title "packet popped, sum(packetBytes)"
statistic BgpNetwork.Frankfurt.ppp[3].ppp.queue queueingTime:histogram
field count 7
field mean 5.4e-07
field stddev 1.4e-06
field min 0
field max 3.8e-06
field sum 3.8e-06
field sqrsum 1.4e-11
attr interpolationmode none
attr source queueingTime(packetPopped)
attr title "queueing times, histogram"
attr unit s
bin	-inf	0
bin	0	6
bin	1e-07	0
bin	2e-07	0
bin	3e-07	0
bin	4e-07	0
bin	5e-07	0
bin	6e-07	0
bin	7e-07	0
bin	8e-07	0
bin	9e-07	0
bin	1e-06	0
bin	1.1e-06	0
bin	1.2e-06	0
bin	1.3e-06	0
bin	1.4e-06	0
bin	1.5e-06	0
bin	1.6e-06	0
bin	1.7e-06	0
bin	1.8e-06	0
bin	1.9e-06	0
bin	2e-06	0
bin	2.1e-06	0
bin	2.2e-06	0
bin	2.3e-06	0
bin	2.4e-06	0
bin	2.5e-06	0
bin	2.6e-06	0
bin	2.7e-06	0
bin	2.8e-06	0
bin	2.9e-06	0
bin	3e-06	0
bin	3.1e-06	0
bin	3.2e-06	0
bin	3.3e-06	0
bin	3.4e-06	0
bin	3.5e-06	0
bin	3.6e-06	0
bin	3.7e-06	1
bin	3.8e-06	0
bin	3.9e-06	0
bin	4e-06	0
bin	4.1e-06	0
bin	4.2e-06	0
bin	4.3e-06	0
bin	4.4e-06	0
bin	4.5e-06	0
bin	4.6e-06	0
bin	4.7e-06	0
scalar BgpNetwork.Frankfurt.ppp[3].ppp.queue queueLength:max 1
attr interpolationmode sample-hold
attr source "count(packetPushed) - count(packetPopped) - count(packetRemoved) - count(packetDropped)"
attr title "queue length, max"
scalar BgpNetwork.Frankfurt.ppp[3].ppp.queue queueLength:timeavg 7.1e-08
attr interpolationmode sample-hold
attr source "count(packetPushed) - count(packetPopped) - count(packetRemoved) - count(packetDropped)"
attr title "queue length, timeavg"
scalar BgpNetwork.Frankfurt.ppp[3].ppp.queue packetPushed:count 7
attr interpolationmode none
attr title "packet pushed, count"
scalar BgpNetwork.Frankfurt.ppp[3].ppp.queue packetPushed:sum(packetBytes) 3.3e+02
attr interpolationmode none
attr title "packet pushed, sum(packetBytes)"
scalar BgpNetwork.Frankfurt.ppp[3].ppp.queue packetDropQueueOverflow:count 0
attr interpolationmode none
attr source packetDropReasonIsQueueOverflow(packetDropped)
attr title "packet drops: queue overflow, count"
scalar BgpNetwork.Frankfurt.ppp[3].ppp.queue packetDropQueueOverflow:sum(packetBytes) 0
attr interpolationmode none
attr source packetDropReasonIsQueueOverflow(packetDropped)
attr title "packet drops: queue overflow, sum(packetBytes)"
scalar BgpNetwork.Frankfurt.ppp[3].ppp.queue packetRemoved:count 0
attr interpolationmode none
attr title "packets removed, count"
scalar BgpNetwork.Frankfurt.ppp[3].ppp.queue packetRemoved:sum(packetBytes) 0
attr interpolationmode none
attr title "packets removed, sum(packetBytes)"
scalar BgpNetwork.Frankfurt.ppp[3].ppp transmissionState:timeavg 4.9e-07
attr interpolationmode sample-hold
attr source transmissionStateChanged
attr title "tx state, timeavg"
scalar BgpNetwork.Frankfurt.ppp[3].ppp rxPkOk:count 6
attr interpolationmode none
attr source rxPkOk
attr title "packets received OK, count"
scalar BgpNetwork.Frankfurt.ppp[3].ppp rxPkOk:sum(packetBytes) 3.4e+02
attr interpolationmode none
attr source rxPkOk
attr title "packets received OK, sum(packetBytes)"
scalar BgpNetwork.Frankfurt.ppp[3].ppp txPk:count 7
attr interpolationmode none
attr source packetSentToLower
attr title "packets transmitted, count"
scalar BgpNetwork.Frankfurt.ppp[3].ppp txPk:sum(packetBytes) 3.8e+02
attr interpolationmode none
attr source packetSentToLower
attr title "packets transmitted, sum(packetBytes)"
scalar BgpNetwork.Frankfurt.ppp[3].ppp rcvdPkFromHl:count 7
attr interpolationmode none
attr source packetReceivedFromUpper
attr title "packets received from higher layer, count"
scalar BgpNetwork.Frankfurt.ppp[3].ppp rcvdPkFromHl:sum(packetBytes) 3.3e+02
attr interpolationmode none
attr source packetReceivedFromUpper
attr title "packets received from higher layer, sum(packetBytes)"
scalar BgpNetwork.Frankfurt.ppp[3].ppp passedUpPk:count 6
attr interpolationmode none
attr source packetSentToUpper
attr title "packets passed to higher layer, count"
scalar BgpNetwork.Frankfurt.ppp[3].ppp passedUpPk:sum(packetBytes) 3e+02
attr interpolationmode none
attr source packetSentToUpper
attr title "packets passed to higher layer, sum(packetBytes)"
scalar BgpNetwork.Frankfurt.ppp[3].ppp packetDropIncorrectlyReceived:count 0
attr interpolationmode none
attr source packetDropReasonIsIncorrectlyReceived(packetDropped)
attr title "packet drop: incorrectly received, count"
scalar BgpNetwork.Frankfurt.ppp[3].ppp packetDropIncorrectlyReceived:sum(packetBytes) 0
attr interpolationmode none
attr source packetDropReasonIsIncorrectlyReceived(packetDropped)
attr title "packet drop: incorrectly received, sum(packetBytes)"
scalar BgpNetwork.Frankfurt.ppp[3].ppp packetDropInterfaceDown:count 0
attr interpolationmode none
attr source packetDropReasonIsInterfaceDown(packetDropped)
attr title "packet drop: interface down, count"
scalar BgpNetwork.Frankfurt.ppp[3].ppp packetDropInterfaceDown:sum(packetBytes) 0
attr interpolationmode none
attr source packetDropReasonIsInterfaceDown(packetDropped)
attr title "packet drop: interface down, sum(packetBytes)"
scalar BgpNetwork.Frankfurt.ppp[4].ppp.queue packetPopped:count 7
attr interpolationmode none
attr title "packet popped, count"
scalar BgpNetwork.Frankfurt.ppp[4].ppp.queue packetPopped:sum(packetBytes) 3.3e+02
attr interpolationmode none
attr title "packet popped, sum(packetBytes)"
statistic BgpNetwork.Frankfurt.ppp[4].ppp.queue queueingTime:histogram
field count 7
field mean 5.4e-07
field stddev 1.4e-06
field min 0
field max 3.8e-06
field sum 3.8e-06
field sqrsum 1.4e-11
attr interpolationmode none
attr source queueingTime(packetPopped)
attr title "queueing times, histogram"
attr unit s
bin	-inf	0
bin	0	6
bin	1e-07	0
bin	2e-07	0
bin	3e-07	0
bin	4e-07	0
bin	5e-07	0
bin	6e-07	0
bin	7e-07	0
bin	8e-07	0
bin	9e-07	0
bin	1e-06	0
bin	1.1e-06	0
bin	1.2e-06	0
bin	1.3e-06	0
bin	1.4e-06	0
bin	1.5e-06	0
bin	1.6e-06	0
bin	1.7e-06	0
bin	1.8e-06	0
bin	1.9e-06	0
bin	2e-06	0
bin	2.1e-06	0
bin	2.2e-06	0
bin	2.3e-06	0
bin	2.4e-06	0
bin	2.5e-06	0
bin	2.6e-06	0
bin	2.7e-06	0
bin	2.8e-06	0
bin	2.9e-06	0
bin	3e-06	0
bin	3.1e-06	0
bin	3.2e-06	0
bin	3.3e-06	0
bin	3.4e-06	0
bin	3.5e-06	0
bin	3.6e-06	0
bin	3.7e-06	1
bin	3.8e-06	0
bin	3.9e-06	0
bin	4e-06	0
bin	4.1e-06	0
bin	4.2e-06	0
bin	4.3e-06	0
bin	4.4e-06	0
bin	4.5e-06	0
bin	4.6e-06	0
bin	4.7e-06	0
scalar BgpNetwork.Frankfurt.ppp[4].ppp.queue queueLength:max 1
attr interpolationmode sample-hold
attr source "count(packetPushed) - count(packetPopped) - count(packetRemoved) - count(packetDropped)"
attr title "queue length, max"
scalar BgpNetwork.Frankfurt.ppp[4].ppp.queue queueLength:timeavg 7.2e-08
attr interpolationmode sample-hold
attr source "count(packetPushed) - count(packetPopped) - count(packetRemoved) - count(packetDropped)"
attr title "queue length, timeavg"
scalar BgpNetwork.Frankfurt.ppp[4].ppp.queue packetPushed:count 7
attr interpolationmode none
attr title "packet pushed, count"
scalar BgpNetwork.Frankfurt.ppp[4].ppp.queue packetPushed:sum(packetBytes) 3.3e+02
attr interpolationmode none
attr title "packet pushed, sum(packetBytes)"
scalar BgpNetwork.Frankfurt.ppp[4].ppp.queue packetDropQueueOverflow:count 0
attr interpolationmode none
attr source packetDropReasonIsQueueOverflow(packetDropped)
attr title "packet drops: queue overflow, count"
scalar BgpNetwork.Frankfurt.ppp[4].ppp.queue packetDropQueueOverflow:sum(packetBytes) 0
attr interpolationmode none
attr source packetDropReasonIsQueueOverflow(packetDropped)
attr title "packet drops: queue overflow, sum(packetBytes)"
scalar BgpNetwork.Frankfurt.ppp[4].ppp.queue packetRemoved:count 0
attr interpolationmode none
attr title "packets removed, count"
scalar BgpNetwork.Frankfurt.ppp[4].ppp.queue packetRemoved:sum(packetBytes) 0
attr interpolationmode none
attr title "packets removed, sum(packetBytes)"
scalar BgpNetwork.Frankfurt.ppp[4].ppp transmissionState:timeavg 4.9e-07
attr interpolationmode sample-hold
attr source transmissionStateChanged
attr title "tx state, timeavg"
scalar BgpNetwork.Frankfurt.ppp[4].ppp rxPkOk:count 6
attr interpolationmode none
attr source rxPkOk
attr title "packets received OK, count"
scalar BgpNetwork.Frankfurt.ppp[4].ppp rxPkOk:sum(packetBytes) 3.4e+02
attr interpolationmode none
attr source rxPkOk
attr title "packets received OK, sum(packetBytes)"
scalar BgpNetwork.Frankfurt.ppp[4].ppp txPk:count 7
attr interpolationmode none
attr source packetSentToLower
attr title "packets transmitted, count"
scalar BgpNetwork.Frankfurt.ppp[4].ppp txPk:sum(packetBytes) 3.8e+02
attr interpolationmode none
attr source packetSentToLower
attr title "packets transmitted, sum(packetBytes)"
scalar BgpNetwork.Frankfurt.ppp[4].ppp rcvdPkFromHl:count 7
attr interpolationmode none
attr source packetReceivedFromUpper
attr title "packets received from higher layer, count"
scalar BgpNetwork.Frankfurt.ppp[4].ppp rcvdPkFromHl:sum(packetBytes) 3.3e+02
attr interpolationmode none
attr source packetReceivedFromUpper
attr title "packets received from higher layer, sum(packetBytes)"
scalar BgpNetwork.Frankfurt.ppp[4].ppp passedUpPk:count 6
attr interpolationmode none
attr source packetSentToUpper
attr title "packets passed to higher layer, count"
scalar BgpNetwork.Frankfurt.ppp[4].ppp passedUpPk:sum(packetBytes) 3e+02
attr interpolationmode none
attr source packetSentToUpper
attr title "packets passed to higher layer, sum(packetBytes)"
scalar BgpNetwork.Frankfurt.ppp[4].ppp packetDropIncorrectlyReceived:count 0
attr interpolationmode none
attr source packetDropReasonIsIncorrectlyReceived(packetDropped)
attr title "packet drop: incorrectly received, count"
scalar BgpNetwork.Frankfurt.ppp[4].ppp packetDropIncorrectlyReceived:sum(packetBytes) 0
attr interpolationmode none
attr source packetDropReasonIsIncorrectlyReceived(packetDropped)
attr title "packet drop: incorrectly received, sum(packetBytes)"
scalar BgpNetwork.Frankfurt.ppp[4].ppp packetDropInterfaceDown:count 0
attr interpolationmode none
attr source packetDropReasonIsInterfaceDown(packetDropped)
attr title "packet drop: interface down, count"
scalar BgpNetwork.Frankfurt.ppp[4].ppp packetDropInterfaceDown:sum(packetBytes) 0
attr interpolationmode none
attr source packetDropReasonIsInterfaceDown(packetDropped)
attr title "packet drop: interface down, sum(packetBytes)"
scalar BgpNetwork.Frankfurt.ppp[5].ppp.queue packetPopped:count 7
attr interpolationmode none
attr title "packet popped, count"
scalar BgpNetwork.Frankfurt.ppp[5].ppp.queue packetPopped:sum(packetBytes) 3.3e+02
attr interpolationmode none
attr title "packet popped, sum(packetBytes)"
statistic BgpNetwork.Frankfurt.ppp[5].ppp.queue queueingTime:histogram
field count 7
field mean 5.4e-07
field stddev 1.4e-06
field min 0
field max 3.8e-06
field sum 3.8e-06
field sqrsum 1.4e-11
attr interpolationmode none
attr source queueingTime(packetPopped)
attr title "queueing times, histogram"
attr unit s
bin	-inf	0
bin	0	6
bin	1e-07	0
bin	2e-07	0
bin	3e-07	0
bin	4e-07	0
bin	5e-07	0
bin	6e-07	0
bin	7e-07	0
bin	8e-07	0
bin	9e-07	0
bin	1e-06	0
bin	1.1e-06	0
bin	1.2e-06	0
bin	1.3e-06	0
bin	1.4e-06	0
bin	1.5e-06	0
bin	1.6e-06	0
bin	1.7e-06	0
bin	1.8e-06	0
bin	1.9e-06	0
bin	2e-06	0
bin	2.1e-06	0
bin	2.2e-06	0
bin	2.3e-06	0
bin	2.4e-06	0
bin	2.5e-06	0
bin	2.6e-06	0
bin	2.7e-06	0
bin	2.8e-06	0
bin	2.9e-06	0
bin	3e-06	0
bin	3.1e-06	0
bin	3.2e-06	0
bin	3.3e-06	0
bin	3.4e-06	0
bin	3.5e-06	0
bin	3.6e-06	0
bin	3.7e-06	1
bin	3.8e-06	0
bin	3.9e-06	0
bin	4e-06	0
bin	4.1e-06	0
bin	4.2e-06	0
bin	4.3e-06	0
bin	4.4e-06	0
bin	4.5e-06	0
bin	4.6e-06	0
bin	4.7e-06	0
scalar BgpNetwork.Frankfurt.ppp[5].ppp.queue queueLength:max 1
attr interpolationmode sample-hold
attr source "count(packetPushed) - count(packetPopped) - count(packetRemoved) - count(packetDropped)"
attr title "queue length, max"
scalar BgpNetwork.Frankfurt.ppp[5].ppp.queue queueLength:timeavg 7.4e-08
attr interpolationmode sample-hold
attr source "count(packetPushed) - count(packetPopped) - count(packetRemoved) - count(packetDropped)"
attr title "queue length, timeavg"
scalar BgpNetwork.Frankfurt.ppp[5].ppp.queue packetPushed:count 7
attr interpolationmode none
attr title "packet pushed, count"
scalar BgpNetwork.Frankfurt.ppp[5].ppp.queue packetPushed:sum(packetBytes) 3.3e+02
attr interpolationmode none
attr title "packet pushed, sum(packetBytes)"
scalar BgpNetwork.Frankfurt.ppp[5].ppp.queue packetDropQueueOverflow:count 0
attr interpolationmode none
attr source packetDropReasonIsQueueOverflow(packetDropped)
attr title "packet drops: queue overflow, count"
scalar BgpNetwork.Frankfurt.ppp[5].ppp.queue packetDropQueueOverflow:sum(packetBytes) 0
attr interpolationmode none
attr source packetDropReasonIsQueueOverflow(packetDropped)
attr title "packet drops: queue overflow, sum(packetBytes)"
scalar BgpNetwork.Frankfurt.ppp[5].ppp.queue packetRemoved:count 0
attr interpolationmode none
attr title "packets removed, count"
scalar BgpNetwork.Frankfurt.ppp[5].ppp.queue packetRemoved:sum(packetBytes) 0
attr interpolationmode none
attr title "packets removed, sum(packetBytes)"
scalar BgpNetwork.Frankfurt.ppp[5].ppp transmissionState:timeavg 4.9e-07
attr interpolationmode sample-hold
attr source transmissionStateChanged
attr title "tx state, timeavg"
scalar BgpNetwork.Frankfurt.ppp[5].ppp rxPkOk:count 6
attr interpolationmode none
attr source rxPkOk
attr title "packets received OK, count"
scalar BgpNetwork.Frankfurt.ppp[5].ppp rxPkOk:sum(packetBytes) 3.4e+02
attr interpolationmode none
attr source rxPkOk
attr title "packets received OK, sum(packetBytes)"
scalar BgpNetwork.Frankfurt.ppp[5].ppp txPk:count 7
attr interpolationmode none
attr source packetSentToLower
attr title "packets transmitted, count"
scalar BgpNetwork.Frankfurt.ppp[5].ppp txPk:sum(packetBytes) 3.8e+02
attr interpolationmode none
attr source packetSentToLower
attr title "packets transmitted, sum(packetBytes)"
scalar BgpNetwork.Frankfurt.ppp[5].ppp rcvdPkFromHl:count 7
attr interpolationmode none
attr source packetReceivedFromUpper
attr title "packets received from higher layer, count"
scalar BgpNetwork.Frankfurt.ppp[5].ppp rcvdPkFromHl:sum(packetBytes) 3.3e+02
attr interpolationmode none
attr source packetReceivedFromUpper
attr title "packets received from higher layer, sum(packetBytes)"
scalar BgpNetwork.Frankfurt.ppp[5].ppp passedUpPk:count 6
attr interpolationmode none
attr source packetSentToUpper
attr title "packets passed to higher layer, count"
scalar BgpNetwork.Frankfurt.ppp[5].ppp passedUpPk:sum(packetBytes) 3e+02
attr interpolationmode none
attr source packetSentToUpper
attr title "packets passed to higher layer, sum(packetBytes)"
scalar BgpNetwork.Frankfurt.ppp[5].ppp packetDropIncorrectlyReceived:count 0
attr interpolationmode none
attr source packetDropReasonIsIncorrectlyReceived(packetDropped)
attr title "packet drop: incorrectly received, count"
scalar BgpNetwork.Frankfurt.ppp[5].ppp packetDropIncorrectlyReceived:sum(packetBytes) 0
attr interpolationmode none
attr source packetDropReasonIsIncorrectlyReceived(packetDropped)
attr title "packet drop: incorrectly received, sum(packetBytes)"
scalar BgpNetwork.Frankfurt.ppp[5].ppp packetDropInterfaceDown:count 0
attr interpolationmode none
attr source packetDropReasonIsInterfaceDown(packetDropped)
attr title "packet drop: interface down, count"
scalar BgpNetwork.Frankfurt.ppp[5].ppp packetDropInterfaceDown:sum(packetBytes) 0
attr interpolationmode none
attr source packetDropReasonIsInterfaceDown(packetDropped)
attr title "packet drop: interface down, sum(packetBytes)"
scalar BgpNetwork.Frankfurt.ppp[6].ppp.queue packetPopped:count 7
attr interpolationmode none
attr title "packet popped, count"
scalar BgpNetwork.Frankfurt.ppp[6].ppp.queue packetPopped:sum(packetBytes) 3.3e+02
attr interpolationmode none
attr title "packet popped, sum(packetBytes)"
statistic BgpNetwork.Frankfurt.ppp[6].ppp.queue queueingTime:histogram
field count 7
field mean 5.4e-07
field stddev 1.4e-06
field min 0
field max 3.8e-06
field sum 3.8e-06
field sqrsum 1.4e-11
attr interpolationmode none
attr source queueingTime(packetPopped)
attr title "queueing times, histogram"
attr unit s
bin	-inf	0
bin	0	6
bin	1e-07	0
bin	2e-07	0
bin	3e-07	0
bin	4e-07	0
bin	5e-07	0
bin	6e-07	0
bin	7e-07	0
bin	8e-07	0
bin	9e-07	0
bin	1e-06	0
bin	1.1e-06	0
bin	1.2e-06	0
bin	1.3e-06	0
bin	1.4e-06	0
bin	1.5e-06	0
bin	1.6e-06	0
bin	1.7e-06	0
bin	1.8e-06	0
bin	1.9e-06	0
bin	2e-06	0
bin	2.1e-06	0
bin	2.2e-06	0
bin	2.3e-06	0
bin	2.4e-06	0
bin	2.5e-06	0
bin	2.6e-06	0
bin	2.7e-06	0
bin	2.8e-06	0
bin	2.9e-06	0
bin	3e-06	0
bin	3.1e-06	0
bin	3.2e-06	0
bin	3.3e-06	0
bin	3.4e-06	0
bin	3.5e-06	0
bin	3.6e-06	0
bin	3.7e-06	1
bin	3.8e-06	0
bin	3.9e-06	0
bin	4e-06	0
bin	4.1e-06	0
bin	4.2e-06	0
bin	4.3e-06	0
bin	4.4e-06	0
bin	4.5e-06	0
bin	4.6e-06	0
bin	4.7e-06	0
scalar BgpNetwork.Frankfurt.ppp[6].ppp.queue queueLength:max 1
attr interpolationmode sample-hold
attr source "count(packetPushed) - count(packetPopped) - count(packetRemoved) - count(packetDropped)"
attr title "queue length, max"
scalar BgpNetwork.Frankfurt.ppp[6].ppp.queue queueLength:timeavg 7.5e-08
attr interpolationmode sample-hold
attr source "count(packetPushed) - count(packetPopped) - count(packetRemoved) - count(packetDropped)"
attr title "queue length, timeavg"
scalar BgpNetwork.Frankfurt.ppp[6].ppp.queue packetPushed:count 7
attr interpolationmode none
attr title "packet pushed, count"
scalar BgpNetwork.Frankfurt.ppp[6].ppp.queue packetPushed:sum(packetBytes) 3.3e+02
attr interpolationmode none
attr title "packet pushed, sum(packetBytes)"
scalar BgpNetwork.Frankfurt.ppp[6].ppp.queue packetDropQueueOverflow:count 0
attr interpolationmode none
attr source packetDropReasonIsQueueOverflow(packetDropped)
attr title "packet drops: queue overflow, count"
scalar BgpNetwork.Frankfurt.ppp[6].ppp.queue packetDropQueueOverflow:sum(packetBytes) 0
attr interpolationmode none
attr source packetDropReasonIsQueueOverflow(packetDropped)
attr title "packet drops: queue overflow, sum(packetBytes)"
scalar BgpNetwork.Frankfurt.ppp[6].ppp.queue packetRemoved:count 0
attr interpolationmode none
attr title "packets removed, count"
scalar BgpNetwork.Frankfurt.ppp[6].ppp.queue packetRemoved:sum(packetBytes) 0
attr interpolationmode none
attr title "packets removed, sum(packetBytes)"
scalar BgpNetwork.Frankfurt.ppp[6].ppp transmissionState:timeavg 4.9e-07
attr interpolationmode sample-hold
attr source transmissionStateChanged
attr title "tx state, timeavg"
scalar BgpNetwork.Frankfurt.ppp[6].ppp rxPkOk:count 6
attr interpolationmode none
attr source rxPkOk
attr title "packets received OK, count"
scalar BgpNetwork.Frankfurt.ppp[6].ppp rxPkOk:sum(packetBytes) 3.4e+02
attr interpolationmode none
attr source rxPkOk
attr title "packets received OK, sum(packetBytes)"
scalar BgpNetwork.Frankfurt.ppp[6].ppp txPk:count 7
attr interpolationmode none
attr source packetSentToLower
attr title "packets transmitted, count"
scalar BgpNetwork.Frankfurt.ppp[6].ppp txPk:sum(packetBytes) 3.8e+02
attr interpolationmode none
attr source packetSentToLower
attr title "packets transmitted, sum(packetBytes)"
scalar BgpNetwork.Frankfurt.ppp[6].ppp rcvdPkFromHl:count 7
attr interpolationmode none
attr source packetReceivedFromUpper
attr title "packets received from higher layer, count"
scalar BgpNetwork.Frankfurt.ppp[6].ppp rcvdPkFromHl:sum(packetBytes) 3.3e+02
attr interpolationmode none
attr source packetReceivedFromUpper
attr title "packets received from higher layer, sum(packetBytes)"
scalar BgpNetwork.Frankfurt.ppp[6].ppp passedUpPk:count 6
attr interpolationmode none
attr source packetSentToUpper
attr title "packets passed to higher layer, count"
scalar BgpNetwork.Frankfurt.ppp[6].ppp passedUpPk:sum(packetBytes) 3e+02
attr interpolationmode none
attr source packetSentToUpper
attr title "packets passed to higher layer, sum(packetBytes)"
scalar BgpNetwork.Frankfurt.ppp[6].ppp packetDropIncorrectlyReceived:count 0
attr interpolationmode none
attr source packetDropReasonIsIncorrectlyReceived(packetDropped)
attr title "packet drop: incorrectly received, count"
scalar BgpNetwork.Frankfurt.ppp[6].ppp packetDropIncorrectlyReceived:sum(packetBytes) 0
attr interpolationmode none
attr source packetDropReasonIsIncorrectlyReceived(packetDropped)
attr title "packet drop: incorrectly received, sum(packetBytes)"
scalar BgpNetwork.Frankfurt.ppp[6].ppp packetDropInterfaceDown:count 0
attr interpolationmode none
attr source packetDropReasonIsInterfaceDown(packetDropped)
attr title "packet drop: interface down, count"
scalar BgpNetwork.Frankfurt.ppp[6].ppp packetDropInterfaceDown:sum(packetBytes) 0
attr interpolationmode none
attr source packetDropReasonIsInterfaceDown(packetDropped)
attr title "packet drop: interface down, sum(packetBytes)"
scalar BgpNetwork.Frankfurt.ppp[7].ppp.queue packetPopped:count 7
attr interpolationmode none
attr title "packet popped, count"
scalar BgpNetwork.Frankfurt.ppp[7].ppp.queue packetPopped:sum(packetBytes) 3.3e+02
attr interpolationmode none
attr title "packet popped, sum(packetBytes)"
statistic BgpNetwork.Frankfurt.ppp[7].ppp.queue queueingTime:histogram
field count 7
field mean 5.4e-07
field stddev 1.4e-06
field min 0
field max 3.8e-06
field sum 3.8e-06
field sqrsum 1.4e-11
attr interpolationmode none
attr source queueingTime(packetPopped)
attr title "queueing times, histogram"
attr unit s
bin	-inf	0
bin	0	6
bin	1e-07	0
bin	2e-07	0
bin	3e-07	0
bin	4e-07	0
bin	5e-07	0
bin	6e-07	0
bin	7e-07	0
bin	8e-07	0
bin	9e-07	0
bin	1e-06	0
bin	1.1e-06	0
bin	1.2e-06	0
bin	1.3e-06	0
bin	1.4e-06	0
bin	1.5e-06	0
bin	1.6e-06	0
bin	1.7e-06	0
bin	1.8e-06	0
bin	1.9e-06	0
bin	2e-06	0
bin	2.1e-06	0
bin	2.2e-06	0
bin	2.3e-06	0
bin	2.4e-06	0
bin	2.5e-06	0
bin	2.6e-06	0
bin	2.7e-06	0
bin	2.8e-06	0
bin	2.9e-06	0
bin	3e-06	0
bin	3.1e-06	0
bin	3.2e-06	0
bin	3.3e-06	0
bin	3.4e-06	0
bin	3.5e-06	0
bin	3.6e-06	0
bin	3.7e-06	1
bin	3.8e-06	0
bin	3.9e-06	0
bin	4e-06	0
bin	4.1e-06	0
bin	4.2e-06	0
bin	4.3e-06	0
bin	4.4e-06	0
bin	4.5e-06	0
bin	4.6e-06	0
bin	4.7e-06	0
scalar BgpNetwork.Frankfurt.ppp[7].ppp.queue queueLength:max 1
attr interpolationmode sample-hold
attr source "count(packetPushed) - count(packetPopped) - count(packetRemoved) - count(packetDropped)"
attr title "queue length, max"
scalar BgpNetwork.Frankfurt.ppp[7].ppp.queue queueLength:timeavg 7.7e-08
attr interpolationmode sample-hold
attr source "count(packetPushed) - count(packetPopped) - count(packetRemoved) - count(packetDropped)"
attr title "queue length, timeavg"
scalar BgpNetwork.Frankfurt.ppp[7].ppp.queue packetPushed:count 7
attr interpolationmode none
attr title "packet pushed, count"
scalar BgpNetwork.Frankfurt.ppp[7].ppp.queue packetPushed:sum(packetBytes) 3.3e+02
attr interpolationmode none
attr title "packet pushed, sum(packetBytes)"
scalar BgpNetwork.Frankfurt.ppp[7].ppp.queue packetDropQueueOverflow:count 0
attr interpolationmode none
attr source packetDropReasonIsQueueOverflow(packetDropped)
attr title "packet drops: queue overflow, count"
scalar BgpNetwork.Frankfurt.ppp[7].ppp.queue packetDropQueueOverflow:sum(packetBytes) 0
attr interpolationmode none
attr source packetDropReasonIsQueueOverflow(packetDropped)
attr title "packet drops: queue overflow, sum(packetBytes)"
scalar BgpNetwork.Frankfurt.ppp[7].ppp.queue packetRemoved:count 0
attr interpolationmode none
attr title "packets removed, count"
scalar BgpNetwork.Frankfurt.ppp[7].ppp.queue packetRemoved:sum(packetBytes) 0
attr interpolationmode none
attr title "packets removed, sum(packetBytes)"
scalar BgpNetwork.Frankfurt.ppp[7].ppp transmissionState:timeavg 4.9e-07
attr interpolationmode sample-hold
attr source transmissionStateChanged
attr title "tx state, timeavg"
scalar BgpNetwork.Frankfurt.ppp[7].ppp rxPkOk:count 6
attr interpolationmode none
attr source rxPkOk
attr title "packets received OK, count"
scalar BgpNetwork.Frankfurt.ppp[7].ppp rxPkOk:sum(packetBytes) 3.4e+02
attr interpolationmode none
attr source rxPkOk
attr title "packets received OK, sum(packetBytes)"
scalar BgpNetwork.Frankfurt.ppp[7].ppp txPk:count 7
attr interpolationmode none
attr source packetSentToLower
attr title "packets transmitted, count"
scalar BgpNetwork.Frankfurt.ppp[7].ppp txPk:sum(packetBytes) 3.8e+02
attr interpolationmode none
attr source packetSentToLower
attr title "packets transmitted, sum(packetBytes)"
scalar BgpNetwork.Frankfurt.ppp[7].ppp rcvdPkFromHl:count 7
attr interpolationmode none
attr source packetReceivedFromUpper
attr title "packets received from higher layer, count"
scalar BgpNetwork.Frankfurt.ppp[7].ppp rcvdPkFromHl:sum(packetBytes) 3.3e+02
attr interpolationmode none
attr source packetReceivedFromUpper
attr title "packets received from higher layer, sum(packetBytes)"
scalar BgpNetwork.Frankfurt.ppp[7].ppp passedUpPk:count 6
attr interpolationmode none
attr source packetSentToUpper
attr title "packets passed to higher layer, count"
scalar BgpNetwork.Frankfurt.ppp[7].ppp passedUpPk:sum(packetBytes) 3e+02
attr interpolationmode none
attr source packetSentToUpper
attr title "packets passed to higher layer, sum(packetBytes)"
scalar BgpNetwork.Frankfurt.ppp[7].ppp packetDropIncorrectlyReceived:count 0
attr interpolationmode none
attr source packetDropReasonIsIncorrectlyReceived(packetDropped)
attr title "packet drop: incorrectly received, count"
scalar BgpNetwork.Frankfurt.ppp[7].ppp packetDropIncorrectlyReceived:sum(packetBytes) 0
attr interpolationmode none
attr source packetDropReasonIsIncorrectlyReceived(packetDropped)
attr title "packet drop: incorrectly received, sum(packetBytes)"
scalar BgpNetwork.Frankfurt.ppp[7].ppp packetDropInterfaceDown:count 0
attr interpolationmode none
attr source packetDropReasonIsInterfaceDown(packetDropped)
attr title "packet drop: interface down, count"
scalar BgpNetwork.Frankfurt.ppp[7].ppp packetDropInterfaceDown:sum(packetBytes) 0
attr interpolationmode none
attr source packetDropReasonIsInterfaceDown(packetDropped)
attr title "packet drop: interface down, sum(packetBytes)"
scalar BgpNetwork.Frankfurt.ppp[8].ppp.queue packetPopped:count 7
attr interpolationmode none
attr title "packet popped, count"
scalar BgpNetwork.Frankfurt.ppp[8].ppp.queue packetPopped:sum(packetBytes) 3.3e+02
attr interpolationmode none
attr title "packet popped, sum(packetBytes)"
statistic BgpNetwork.Frankfurt.ppp[8].ppp.queue queueingTime:histogram
field count 7
field mean 5.4e-07
field stddev 1.4e-06
field min 0
field max 3.8e-06
field sum 3.8e-06
field sqrsum 1.4e-11
attr interpolationmode none
attr source queueingTime(packetPopped)
attr title "queueing times, histogram"
attr unit s
bin	-inf	0
bin	0	6
bin	1e-07	0
bin	2e-07	0
bin	3e-07	0
bin	4e-07	0
bin	5e-07	0
bin	6e-07	0
bin	7e-07	0
bin	8e-07	0
bin	9e-07	0
bin	1e-06	0
bin	1.1e-06	0
bin	1.2e-06	0
bin	1.3e-06	0
bin	1.4e-06	0
bin	1.5e-06	0
bin	1.6e-06	0
bin	1.7e-06	0
bin	1.8e-06	0
bin	1.9e-06	0
bin	2e-06	0
bin	2.1e-06	0
bin	2.2e-06	0
bin	2.3e-06	0
bin	2.4e-06	0
bin	2.5e-06	0
bin	2.6e-06	0
bin	2.7e-06	0
bin	2.8e-06	0
bin	2.9e-06	0
bin	3e-06	0
bin	3.1e-06	0
bin	3.2e-06	0
bin	3.3e-06	0
bin	3.4e-06	0
bin	3.5e-06	0
bin	3.6e-06	0
bin	3.7e-06	1
bin	3.8e-06	0
bin	3.9e-06	0
bin	4e-06	0
bin	4.1e-06	0
bin	4.2e-06	0
bin	4.3e-06	0
bin	4.4e-06	0
bin	4.5e-06	0
bin	4.6e-06	0
bin	4.7e-06	0
scalar BgpNetwork.Frankfurt.ppp[8].ppp.queue queueLength:max 1
attr interpolationmode sample-hold
attr source "count(packetPushed) - count(packetPopped) - count(packetRemoved) - count(packetDropped)"
attr title "queue length, max"
scalar BgpNetwork.Frankfurt.ppp[8].ppp.queue queueLength:timeavg 7.8e-08
attr interpolationmode sample-hold
attr source "count(packetPushed) - count(packetPopped) - count(packetRemoved) - count(packetDropped)"
attr title "queue length, timeavg"
scalar BgpNetwork.Frankfurt.ppp[8].ppp.queue packetPushed:count 7
attr interpolationmode none
attr title "packet pushed, count"
scalar BgpNetwork.Frankfurt.ppp[8].ppp.queue packetPushed:sum(packetBytes) 3.3e+02
attr interpolationmode none
attr title "packet pushed, sum(packetBytes)"
scalar BgpNetwork.Frankfurt.ppp[8].ppp.queue packetDropQueueOverflow:count 0
attr interpolationmode none
attr source packetDropReasonIsQueueOverflow(packetDropped)
attr title "packet drops: queue overflow, count"
scalar BgpNetwork.Frankfurt.ppp[8].ppp.queue packetDropQueueOverflow:sum(packetBytes) 0
attr interpolationmode none
attr source packetDropReasonIsQueueOverflow(packetDropped)
attr title "packet drops: queue overflow, sum(packetBytes)"
scalar BgpNetwork.Frankfurt.ppp[8].ppp.queue packetRemoved:count 0
attr interpolationmode none
attr title "packets removed, count"
scalar BgpNetwork.Frankfurt.ppp[8].ppp.queue packetRemoved:sum(packetBytes) 0
attr interpolationmode none
attr title "packets removed, sum(packetBytes)"
scalar BgpNetwork.Frankfurt.ppp[8].ppp transmissionState:timeavg 4.9e-07
attr interpolationmode sample-hold
attr source transmissionStateChanged
attr title "tx state, timeavg"
scalar BgpNetwork.Frankfurt.ppp[8].ppp rxPkOk:count 6
attr interpolationmode none
attr source rxPkOk
attr title "packets received OK, count"
scalar BgpNetwork.Frankfurt.ppp[8].ppp rxPkOk:sum(packetBytes) 3.4e+02
attr interpolationmode none
attr source rxPkOk
attr title "packets received OK, sum(packetBytes)"
scalar BgpNetwork.Frankfurt.ppp[8].ppp txPk:count 7
attr interpolationmode none
attr source packetSentToLower
attr title "packets transmitted, count"
scalar BgpNetwork.Frankfurt.ppp[8].ppp txPk:sum(packetBytes) 3.8e+02
attr interpolationmode none
attr source packetSentToLower
attr title "packets transmitted, sum(packetBytes)"
scalar BgpNetwork.Frankfurt.ppp[8].ppp rcvdPkFromHl:count 7
attr interpolationmode none
attr source packetReceivedFromUpper
attr title "packets received from higher layer, count"
scalar BgpNetwork.Frankfurt.ppp[8].ppp rcvdPkFromHl:sum(packetBytes) 3.3e+02
attr interpolationmode none
attr source packetReceivedFromUpper
attr title "packets received from higher layer, sum(packetBytes)"
scalar BgpNetwork.Frankfurt.ppp[8].ppp passedUpPk:count 6
attr interpolationmode none
attr source packetSentToUpper
attr title "packets passed to higher layer, count"
scalar BgpNetwork.Frankfurt.ppp[8].ppp passedUpPk:sum(packetBytes) 3e+02
attr interpolationmode none
attr source packetSentToUpper
attr title "packets passed to higher layer, sum(packetBytes)"
scalar BgpNetwork.Frankfurt.ppp[8].ppp packetDropIncorrectlyReceived:count 0
attr interpolationmode none
attr source packetDropReasonIsIncorrectlyReceived(packetDropped)
attr title "packet drop: incorrectly received, count"
scalar BgpNetwork.Frankfurt.ppp[8].ppp packetDropIncorrectlyReceived:sum(packetBytes) 0
attr interpolationmode none
attr source packetDropReasonIsIncorrectlyReceived(packetDropped)
attr title "packet drop: incorrectly received, sum(packetBytes)"
scalar BgpNetwork.Frankfurt.ppp[8].ppp packetDropInterfaceDown:count 0
attr interpolationmode none
attr source packetDropReasonIsInterfaceDown(packetDropped)
attr title "packet drop: interface down, count"
scalar BgpNetwork.Frankfurt.ppp[8].ppp packetDropInterfaceDown:sum(packetBytes) 0
attr interpolationmode none
attr source packetDropReasonIsInterfaceDown(packetDropped)
attr title "packet drop: interface down, sum(packetBytes)"
scalar BgpNetwork.Frankfurt.ppp[9].ppp.queue packetPopped:count 7
attr interpolationmode none
attr title "packet popped, count"
scalar BgpNetwork.Frankfurt.ppp[9].ppp.queue packetPopped:sum(packetBytes) 3.3e+02
attr interpolationmode none
attr title "packet popped, sum(packetBytes)"
statistic BgpNetwork.Frankfurt.ppp[9].ppp.queue queueingTime:histogram
field count 7
field mean 5.4e-07
field stddev 1.4e-06
field min 0
field max 3.8e-06
field sum 3.8e-06
field sqrsum 1.4e-11
attr interpolationmode none
attr source queueingTime(packetPopped)
attr title "queueing times, histogram"
attr unit s
bin	-inf	0
bin	0	6
bin	1e-07	0
bin	2e-07	0
bin	3e-07	0
bin	4e-07	0
bin	5e-07	0
bin	6e-07	0
bin	7e-07	0
bin	8e-07	0
bin	9e-07	0
bin	1e-06	0
bin	1.1e-06	0
bin	1.2e-06	0
bin	1.3e-06	0
bin	1.4e-06	0
bin	1.5e-06	0
bin	1.6e-06	0
bin	1.7e-06	0
bin	1.8e-06	0
bin	1.9e-06	0
bin	2e-06	0
bin	2.1e-06	0
bin	2.2e-06	0
bin	2.3e-06	0
bin	2.4e-06	0
bin	2.5e-06	0
bin	2.6e-06	0
bin	2.7e-06	0
bin	2.8e-06	0
bin	2.9e-06	0
bin	3e-06	0
bin	3.1e-06	0
bin	3.2e-06	0
bin	3.3e-06	0
bin	3.4e-06	0
bin	3.5e-06	0
bin	3.6e-06	0
bin	3.7e-06	1
bin	3.8e-06	0
bin	3.9e-06	0
bin	4e-06	0
bin	4.1e-06	0
bin	4.2e-06	0
bin	4.3e-06	0
bin	4.4e-06	0
bin	4.5e-06	0
bin	4.6e-06	0
bin	4.7e-06	0
scalar BgpNetwork.Frankfurt.ppp[9].ppp.queue queueLength:max 1
attr interpolationmode sample-hold
attr source "count(packetPushed) - count(packetPopped) - count(packetRemoved) - count(packetDropped)"
attr title "queue length, max"
scalar BgpNetwork.Frankfurt.ppp[9].ppp.queue queueLength:timeavg 8e-08
attr interpolationmode sample-hold
attr source "count(packetPushed) - count(packetPopped) - count(packetRemoved) - count(packetDropped)"
attr title "queue length, timeavg"
scalar BgpNetwork.Frankfurt.ppp[9].ppp.queue packetPushed:count 7
attr interpolationmode none
attr title "packet pushed, count"
scalar BgpNetwork.Frankfurt.ppp[9].ppp.queue packetPushed:sum(packetBytes) 3.3e+02
attr interpolationmode none
attr title "packet pushed, sum(packetBytes)"
scalar BgpNetwork.Frankfurt.ppp[9].ppp.queue packetDropQueueOverflow:count 0
attr interpolationmode none
attr source packetDropReasonIsQueueOverflow(packetDropped)
attr title "packet drops: queue overflow, count"
scalar BgpNetwork.Frankfurt.ppp[9].ppp.queue packetDropQueueOverflow:sum(packetBytes) 0
attr interpolationmode none
attr source packetDropReasonIsQueueOverflow(packetDropped)
attr title "packet drops: queue overflow, sum(packetBytes)"
scalar BgpNetwork.Frankfurt.ppp[9].ppp.queue packetRemoved:count 0
attr interpolationmode none
attr title "packets removed, count"
scalar BgpNetwork.Frankfurt.ppp[9].ppp.queue packetRemoved:sum(packetBytes) 0
attr interpolationmode none
attr title "packets removed, sum(packetBytes)"
scalar BgpNetwork.Frankfurt.ppp[9].ppp transmissionState:timeavg 4.9e-07
attr interpolationmode sample-hold
attr source transmissionStateChanged
attr title "tx state, timeavg"
scalar BgpNetwork.Frankfurt.ppp[9].ppp rxPkOk:count 6
attr interpolationmode none
attr source rxPkOk
attr title "packets received OK, count"
scalar BgpNetwork.Frankfurt.ppp[9].ppp rxPkOk:sum(packetBytes) 3.4e+02
attr interpolationmode none
attr source rxPkOk
attr title "packets received OK, sum(packetBytes)"
scalar BgpNetwork.Frankfurt.ppp[9].ppp txPk:count 7
attr interpolationmode none
attr source packetSentToLower
attr title "packets transmitted, count"
scalar BgpNetwork.Frankfurt.ppp[9].ppp txPk:sum(packetBytes) 3.8e+02
attr interpolationmode none
attr source packetSentToLower
attr title "packets transmitted, sum(packetBytes)"
scalar BgpNetwork.Frankfurt.ppp[9].ppp rcvdPkFromHl:count 7
attr interpolationmode none
attr source packetReceivedFromUpper
attr title "packets received from higher layer, count"
scalar BgpNetwork.Frankfurt.ppp[9].ppp rcvdPkFromHl:sum(packetBytes) 3.3e+02
attr interpolationmode none
attr source packetReceivedFromUpper
attr title "packets received from higher layer, sum(packetBytes)"
scalar BgpNetwork.Frankfurt.ppp[9].ppp passedUpPk:count 6
attr interpolationmode none
attr source packetSentToUpper
attr title "packets passed to higher layer, count"
scalar BgpNetwork.Frankfurt.ppp[9].ppp passedUpPk:sum(packetBytes) 3e+02
attr interpolationmode none
attr source packetSentToUpper
attr title "packets passed to higher layer, sum(packetBytes)"
scalar BgpNetwork.Frankfurt.ppp[9].ppp packetDropIncorrectlyReceived:count 0
attr interpolationmode none
attr source packetDropReasonIsIncorrectlyReceived(packetDropped)
attr title "packet drop: incorrectly received, count"
scalar BgpNetwork.Frankfurt.ppp[9].ppp packetDropIncorrectlyReceived:sum(packetBytes) 0
attr interpolationmode none
attr source packetDropReasonIsIncorrectlyReceived(packetDropped)
attr title "packet drop: incorrectly received, sum(packetBytes)"
scalar BgpNetwork.Frankfurt.ppp[9].ppp packetDropInterfaceDown:count 0
attr interpolationmode none
attr source packetDropReasonIsInterfaceDown(packetDropped)
attr title "packet drop: interface down, count"
scalar BgpNetwork.Frankfurt.ppp[9].ppp packetDropInterfaceDown:sum(packetBytes) 0
attr interpolationmode none
attr source packetDropReasonIsInterfaceDown(packetDropped)
attr title "packet drop: interface down, sum(packetBytes)"
scalar BgpNetwork.Frankfurt.ppp[10].ppp.queue packetPopped:count 7
attr interpolationmode none
attr title "packet popped, count"
scalar BgpNetwork.Frankfurt.ppp[10].ppp.queue packetPopped:sum(packetBytes) 3.3e+02
attr interpolationmode none
attr title "packet popped, sum(packetBytes)"
statistic BgpNetwork.Frankfurt.ppp[10].ppp.queue queueingTime:histogram
field count 7
field mean 5.4e-07
field stddev 1.4e-06
field min 0
field max 3.8e-06
field sum 3.8e-06
field sqrsum 1.4e-11
attr interpolationmode none
attr source queueingTime(packetPopped)
attr title "queueing times, histogram"
attr unit s
bin	-inf	0
bin	0	6
bin	1e-07	0
bin	2e-07	0
bin	3e-07	0
bin	4e-07	0
bin	5e-07	0
bin	6e-07	0
bin	7e-07	0
bin	8e-07	0
bin	9e-07	0
bin	1e-06	0
bin	1.1e-06	0
bin	1.2e-06	0
bin	1.3e-06	0
bin	1.4e-06	0
bin	1.5e-06	0
bin	1.6e-06	0
bin	1.7e-06	0
bin	1.8e-06	0
bin	1.9e-06	0
bin	2e-06	0
bin	2.1e-06	0
bin	2.2e-06	0
bin	2.3e-06	0
bin	2.4e-06	0
bin	2.5e-06	0
bin	2.6e-06	0
bin	2.7e-06	0
bin	2.8e-06	0
bin	2.9e-06	0
bin	3e-06	0
bin	3.1e-06	0
bin	3.2e-06	0
bin	3.3e-06	0
bin	3.4e-06	0
bin	3.5e-06	0
bin	3.6e-06	0
bin	3.7e-06	1
bin	3.8e-06	0
bin	3.9e-06	0
bin	4e-06	0
bin	4.1e-06	0
bin	4.2e-06	0
bin	4.3e-06	0
bin	4.4e-06	0
bin	4.5e-06	0
bin	4.6e-06	0
bin	4.7e-06	0
scalar BgpNetwork.Frankfurt.ppp[10].ppp.queue queueLength:max 1
attr interpolationmode sample-hold
attr source "count(packetPushed) - count(packetPopped) - count(packetRemoved) - count(packetDropped)"
attr title "queue length, max"
scalar BgpNetwork.Frankfurt.ppp[10].ppp.queue queueLength:timeavg 8.2e-08
attr interpolationmode sample-hold
attr source "count(packetPushed) - count(packetPopped) - count(packetRemoved) - count(packetDropped)"
attr title "queue length, timeavg"
scalar BgpNetwork.Frankfurt.ppp[10].ppp.queue packetPushed:count 7
attr interpolationmode none
attr title "packet pushed, count"
scalar BgpNetwork.Frankfurt.ppp[10].ppp.queue packetPushed:sum(packetBytes) 3.3e+02
attr interpolationmode none
attr title "packet pushed, sum(packetBytes)"
scalar BgpNetwork.Frankfurt.ppp[10].ppp.queue packetDropQueueOverflow:count 0
attr interpolationmode none
attr source packetDropReasonIsQueueOverflow(packetDropped)
attr title "packet drops: queue overflow, count"
scalar BgpNetwork.Frankfurt.ppp[10].ppp.queue packetDropQueueOverflow:sum(packetBytes) 0
attr interpolationmode none
attr source packetDropReasonIsQueueOverflow(packetDropped)
attr title "packet drops: queue overflow, sum(packetBytes)"
scalar BgpNetwork.Frankfurt.ppp[10].ppp.queue packetRemoved:count 0
attr interpolationmode none
attr title "packets removed, count"
scalar BgpNetwork.Frankfurt.ppp[10].ppp.queue packetRemoved:sum(packetBytes) 0
attr interpolationmode none
attr title "packets removed, sum(packetBytes)"
scalar BgpNetwork.Frankfurt.ppp[10].ppp transmissionState:timeavg 4.9e-07
attr interpolationmode sample-hold
attr source transmissionStateChanged
attr title "tx state, timeavg"
scalar BgpNetwork.Frankfurt.ppp[10].ppp rxPkOk:count 6
attr interpolationmode none
attr source rxPkOk
attr title "packets received OK, count"
scalar BgpNetwork.Frankfurt.ppp[10].ppp rxPkOk:sum(packetBytes) 3.4e+02
attr interpolationmode none
attr source rxPkOk
attr title "packets received OK, sum(packetBytes)"
scalar BgpNetwork.Frankfurt.ppp[10].ppp txPk:count 7
attr interpolationmode none
attr source packetSentToLower
attr title "packets transmitted, count"
scalar BgpNetwork.Frankfurt.ppp[10].ppp txPk:sum(packetBytes) 3.8e+02
attr interpolationmode none
attr source packetSentToLower
attr title "packets transmitted, sum(packetBytes)"
scalar BgpNetwork.Frankfurt.ppp[10].ppp rcvdPkFromHl:count 7
attr interpolationmode none
attr source packetReceivedFromUpper
attr title "packets received from higher layer, count"
scalar BgpNetwork.Frankfurt.ppp[10].ppp rcvdPkFromHl:sum(packetBytes) 3.3e+02
attr interpolationmode none
attr source packetReceivedFromUpper
attr title "packets received from higher layer, sum(packetBytes)"
scalar BgpNetwork.Frankfurt.ppp[10].ppp passedUpPk:count 6
attr interpolationmode none
attr source packetSentToUpper
attr title "packets passed to higher layer, count"
scalar BgpNetwork.Frankfurt.ppp[10].ppp passedUpPk:sum(packetBytes) 3e+02
attr interpolationmode none
attr source packetSentToUpper
attr title "packets passed to higher layer, sum(packetBytes)"
scalar BgpNetwork.Frankfurt.ppp[10].ppp packetDropIncorrectlyReceived:count 0
attr interpolationmode none
attr source packetDropReasonIsIncorrectlyReceived(packetDropped)
attr title "packet drop: incorrectly received, count"
scalar BgpNetwork.Frankfurt.ppp[10].ppp packetDropIncorrectlyReceived:sum(packetBytes) 0
attr interpolationmode none
attr source packetDropReasonIsIncorrectlyReceived(packetDropped)
attr title "packet drop: incorrectly received, sum(packetBytes)"
scalar BgpNetwork.Frankfurt.ppp[10].ppp packetDropInterfaceDown:count 0
attr interpolationmode none
attr source packetDropReasonIsInterfaceDown(packetDropped)
attr title "packet drop: interface down, count"
scalar BgpNetwork.Frankfurt.ppp[10].ppp packetDropInterfaceDown:sum(packetBytes) 0
attr interpolationmode none
attr source packetDropReasonIsInterfaceDown(packetDropped)
attr title "packet drop: interface down, sum(packetBytes)"
scalar BgpNetwork.Duesseldorf.bgp OPENMsgSent 4
scalar BgpNetwork.Duesseldorf.bgp OPENMsgRecv 4
scalar BgpNetwork.Duesseldorf.bgp KeepAliveMsgSent 4
scalar BgpNetwork.Duesseldorf.bgp KeepAliveMsgRcv 4
scalar BgpNetwork.Duesseldorf.bgp UpdateMsgSent 0
scalar BgpNetwork.Duesseldorf.bgp UpdateMsgRcv 0
scalar BgpNetwork.Duesseldorf.ipv4.ip packetDropAddressResolutionFailed:count 0
attr interpolationmode none
attr source packetDropReasonIsAddressResolutionFailed(packetDropped)
attr title "packet drop: address resolution failed, count"
scalar BgpNetwork.Duesseldorf.ipv4.ip packetDropAddressResolutionFailed:sum(packetBytes) 0
attr interpolationmode none
attr source packetDropReasonIsAddressResolutionFailed(packetDropped)
attr title "packet drop: address resolution failed, sum(packetBytes)"
scalar BgpNetwork.Duesseldorf.ipv4.ip packetDropHopLimitReached:count 0
attr interpolationmode none
attr source packetDropReasonIsHopLimitReached(packetDropped)
attr title "packet drop: hop limit reached, count"
scalar BgpNetwork.Duesseldorf.ipv4.ip packetDropHopLimitReached:sum(packetBytes) 0
attr interpolationmode none
attr source packetDropReasonIsHopLimitReached(packetDropped)
attr title "packet drop: hop limit reached, sum(packetBytes)"
scalar BgpNetwork.Duesseldorf.ipv4.ip packetDropForwardingDisabled:count 0
attr interpolationmode none
attr source packetDropReasonIsForwardingDisabled(packetDropped)
attr title "packet drop: forwarding disabled, count"
scalar BgpNetwork.Duesseldorf.ipv4.ip packetDropForwardingDisabled:sum(packetBytes) 0
attr interpolationmode none
attr source packetDropReasonIsForwardingDisabled(packetDropped)
attr title "packet drop: forwarding disabled, sum(packetBytes)"
scalar BgpNetwork.Duesseldorf.ipv4.ip packetDropNoInterfaceFound:count 0
attr interpolationmode none
attr source packetDropReasonIsNoInterfaceFound(packetDropped)
attr title "packet drop: no interface found, count"
scalar BgpNetwork.Duesseldorf.ipv4.ip packetDropNoInterfaceFound:sum(packetBytes) 0
attr interpolationmode none
attr source packetDropReasonIsNoInterfaceFound(packetDropped)
attr title "packet drop: no interface found, sum(packetBytes)"
scalar BgpNetwork.Duesseldorf.ipv4.ip packetDropNoRouteFound:count 0
attr interpolationmode none
attr source packetDropReasonIsNoRouteFound(packetDropped)
attr title "packet drop: no route found, count"
scalar BgpNetwork.Duesseldorf.ipv4.ip packetDropNoRouteFound:sum(packetBytes) 0
attr interpolationmode none
attr source packetDropReasonIsNoRouteFound(packetDropped)
attr title "packet drop: no route found, sum(packetBytes)"
scalar BgpNetwork.Duesseldorf.ipv4.ip packetDropUndefined:count 0
attr interpolationmode none
attr source packetDropReasonIsUndefined(packetDropped)
attr title "packet drop: undefined, count"
scalar BgpNetwork.Duesseldorf.ipv4.ip packetDropUndefined:sum(packetBytes) 0
attr interpolationmode none
attr source packetDropReasonIsUndefined(packetDropped)
attr title "packet drop: undefined, sum(packetBytes)"
scalar BgpNetwork.Duesseldorf.ipv4.arp arpResolutionFailed:count 0
attr title "ARP failed resolutions, count"
scalar BgpNetwork.Duesseldorf.ipv4.arp arpResolutionCompleted:count 0
attr title "ARP completed resolutions, count"
scalar BgpNetwork.Duesseldorf.ipv4.arp arpResolutionInitiated:count 0
attr title "ARP initiated resolutions, count"
scalar BgpNetwork.Duesseldorf.ipv4.arp arpReplySent:count 0
attr source arpReplySent
attr title "ARP replies sent, count"
scalar BgpNetwork.Duesseldorf.ipv4.arp arpReplySent:sum(packetBytes) 0
attr source arpReplySent
attr title "ARP replies sent, sum(packetBytes)"
scalar BgpNetwork.Duesseldorf.ipv4.arp arpRequestSent:count 0
attr source arpRequestSent
attr title "ARP request sent, count"
scalar BgpNetwork.Duesseldorf.ipv4.arp arpRequestSent:sum(packetBytes) 0
attr source arpRequestSent
attr title "ARP request sent, sum(packetBytes)"
scalar BgpNetwork.Duesseldorf.ppp[0].ppp.queue packetPopped:count 7
attr interpolationmode none
attr title "packet popped, count"
scalar BgpNetwork.Duesseldorf.ppp[0].ppp.queue packetPopped:sum(packetBytes) 3.3e+02
attr interpolationmode none
attr title "packet popped, sum(packetBytes)"
statistic BgpNetwork.Duesseldorf.ppp[0].ppp.queue queueingTime:histogram
field count 7
field mean 5.4e-07
field stddev 1.4e-06
field min 0
field max 3.8e-06
field sum 3.8e-06
field sqrsum 1.4e-11
attr interpolationmode none
attr source queueingTime(packetPopped)
attr title "queueing times, histogram"
attr unit s
bin	-inf	0
bin	0	6
bin	1e-07	0
bin	2e-07	0
bin	3e-07	0
bin	4e-07	0
bin	5e-07	0
bin	6e-07	0
bin	7e-07	0
bin	8e-07	0
bin	9e-07	0
bin	1e-06	0
bin	1.1e-06	0
bin	1.2e-06	0
bin	1.3e-06	0
bin	1.4e-06	0
bin	1.5e-06	0
bin	1.6e-06	0
bin	1.7e-06	0
bin	1.8e-06	0
bin	1.9e-06	0
bin	2e-06	0
bin	2.1e-06	0
bin	2.2e-06	0
bin	2.3e-06	0
bin	2.4e-06	0
bin	2.5e-06	0
bin	2.6e-06	0
bin	2.7e-06	0
bin	2.8e-06	0
bin	2.9e-06	0
bin	3e-06	0
bin	3.1e-06	0
bin	3.2e-06	0
bin	3.3e-06	0
bin	3.4e-06	0
bin	3.5e-06	0
bin	3.6e-06	0
bin	3.7e-06	1
bin	3.8e-06	0
bin	3.9e-06	0
bin	4e-06	0
bin	4.1e-06	0
bin	4.2e-06	0
bin	4.3e-06	0
bin	4.4e-06	0
bin	4.5e-06	0
bin	4.6e-06	0
bin	4.7e-06	0
scalar BgpNetwork.Duesseldorf.ppp[0].ppp.queue queueLength:max 1
attr interpolationmode sample-hold
attr source "count(packetPushed) - count(packetPopped) - count(packetRemoved) - count(packetDropped)"
attr title "queue length, max"
scalar BgpNetwork.Duesseldorf.ppp[0].ppp.queue queueLength:timeavg 6.4e-08
attr interpolationmode sample-hold
attr source "count(packetPushed) - count(packetPopped) - count(packetRemoved) - count(packetDropped)"
attr title "queue length, timeavg"
scalar BgpNetwork.Duesseldorf.ppp[0].ppp.queue packetPushed:count 7
attr interpolationmode none
attr title "packet pushed, count"
scalar BgpNetwork.Duesseldorf.ppp[0].ppp.queue packetPushed:sum(packetBytes) 3.3e+02
attr interpolationmode none
attr title "packet pushed, sum(packetBytes)"
scalar BgpNetwork.Duesseldorf.ppp[0].ppp.queue packetDropQueueOverflow:count 0
attr interpolationmode none
attr source packetDropReasonIsQueueOverflow(packetDropped)
attr title "packet drops: queue overflow, count"
scalar BgpNetwork.Duesseldorf.ppp[0].ppp.queue packetDropQueueOverflow:sum(packetBytes) 0
attr interpolationmode none
attr source packetDropReasonIsQueueOverflow(packetDropped)
attr title "packet drops: queue overflow, sum(packetBytes)"
scalar BgpNetwork.Duesseldorf.ppp[0].ppp.queue packetRemoved:count 0
attr interpolationmode none
attr title "packets removed, count"
scalar BgpNetwork.Duesseldorf.ppp[0].ppp.queue packetRemoved:sum(packetBytes) 0
attr interpolationmode none
attr title "packets removed, sum(packetBytes)"
scalar BgpNetwork.Duesseldorf.ppp[0].ppp transmissionState:timeavg 4.9e-07
attr interpolationmode sample-hold
attr source transmissionStateChanged
attr title "tx state, timeavg"
scalar BgpNetwork.Duesseldorf.ppp[0].ppp rxPkOk:count 6
attr interpolationmode none
attr source rxPkOk
attr title "packets received OK, count"
scalar BgpNetwork.Duesseldorf.ppp[0].ppp rxPkOk:sum(packetBytes) 3.4e+02
attr interpolationmode none
attr source rxPkOk
attr title "packets received OK, sum(packetBytes)"
scalar BgpNetwork.Duesseldorf.ppp[0].ppp txPk:count 7
attr interpolationmode none
attr source packetSentToLower
attr title "packets transmitted, count"
scalar BgpNetwork.Duesseldorf.ppp[0].ppp txPk:sum(packetBytes) 3.8e+02
attr interpolationmode none
attr source packetSentToLower
attr title "packets transmitted, sum(packetBytes)"
scalar BgpNetwork.Duesseldorf.ppp[0].ppp rcvdPkFromHl:count 7
attr interpolationmode none
attr source packetReceivedFromUpper
attr title "packets received from higher layer, count"
scalar BgpNetwork.Duesseldorf.ppp[0].ppp rcvdPkFromHl:sum(packetBytes) 3.3e+02
attr interpolationmode none
attr source packetReceivedFromUpper
attr title "packets received from higher layer, sum(packetBytes)"
scalar BgpNetwork.Duesseldorf.ppp[0].ppp passedUpPk:count 6
attr interpolationmode none
attr source packetSentToUpper
attr title "packets passed to higher layer, count"
scalar BgpNetwork.Duesseldorf.ppp[0].ppp passedUpPk:sum(packetBytes) 3e+02
attr interpolationmode none
attr source packetSentToUpper
attr title "packets passed to higher layer, sum(packetBytes)"
scalar BgpNetwork.Duesseldorf.ppp[0].ppp packetDropIncorrectlyReceived:count 0
attr interpolationmode none
attr source packetDropReasonIsIncorrectlyReceived(packetDropped)
attr title "packet drop: incorrectly received, count"
scalar BgpNetwork.Duesseldorf.ppp[0].ppp packetDropIncorrectlyReceived:sum(packetBytes) 0
attr interpolationmode none
attr source packetDropReasonIsIncorrectlyReceived(packetDropped)
attr title "packet drop: incorrectly received, sum(packetBytes)"
scalar BgpNetwork.Duesseldorf.ppp[0].ppp packetDropInterfaceDown:count 0
attr interpolationmode none
attr source packetDropReasonIsInterfaceDown(packetDropped)
attr title "packet drop: interface down, count"
scalar BgpNetwork.Duesseldorf.ppp[0].ppp packetDropInterfaceDown:sum(packetBytes) 0
attr interpolationmode none
attr source packetDropReasonIsInterfaceDown(packetDropped)
attr title "packet drop: interface down, sum(packetBytes)"
scalar BgpNetwork.Duesseldorf.ppp[1].ppp.queue packetPopped:count 6
attr interpolationmode none
attr title "packet popped, count"
scalar BgpNetwork.Duesseldorf.ppp[1].ppp.queue packetPopped:sum(packetBytes) 3e+02
attr interpolationmode none
attr title "packet popped, sum(packetBytes)"
statistic BgpNetwork.Duesseldorf.ppp[1].ppp.queue queueingTime:histogram
field count 6
field mean 0
field stddev 0
field min 0
field max 0
field sum 0
field sqrsum 0
attr interpolationmode none
attr source queueingTime(packetPopped)
attr title "queueing times, histogram"
attr unit s
bin	-inf	0
bin	-0.5	0
bin	-0.48	0
bin	-0.46	0
bin	-0.44	0
bin	-0.42	0
bin	-0.4	0
bin	-0.38	0
bin	-0.36	0
bin	-0.34	0
bin	-0.32	0
bin	-0.3	0
bin	-0.28	0
bin	-0.26	0
bin	-0.24	0
bin	-0.22	0
bin	-0.2	0
bin	-0.18	0
bin	-0.16	0
bin	-0.14	0
bin	-0.12	0
bin	-0.1	0
bin	-0.08	0
bin	-0.06	0
bin	-0.04	0
bin	-0.02	0
bin	0	6
bin	0.02	0
bin	0.04	0
bin	0.06	0
bin	0.08	0
bin	0.1	0
bin	0.12	0
bin	0.14	0
bin	0.16	0
bin	0.18	0
bin	0.2	0
bin	0.22	0
bin	0.24	0
bin	0.26	0
bin	0.28	0
bin	0.3	0
bin	0.32	0
bin	0.34	0
bin	0.36	0
bin	0.38	0
bin	0.4	0
bin	0.42	0
bin	0.44	0
bin	0.46	0
bin	0.48	0
bin	0.5	0
scalar BgpNetwork.Duesseldorf.ppp[1].ppp.queue queueLength:max 1
attr interpolationmode sample-hold
attr source "count(packetPushed) - count(packetPopped) - count(packetRemoved) - count(packetDropped)"
attr title "queue length, max"
scalar BgpNetwork.Duesseldorf.ppp[1].ppp.queue queueLength:timeavg 0
attr interpolationmode sample-hold
attr source "count(packetPushed) - count(packetPopped) - count(packetRemoved) - count(packetDropped)"
attr title "queue length, timeavg"
scalar BgpNetwork.Duesseldorf.ppp[1].ppp.queue packetPushed:count 6
attr interpolationmode none
attr title "packet pushed, count"
scalar BgpNetwork.Duesseldorf.ppp[1].ppp.queue packetPushed:sum(packetBytes) 3e+02
attr interpolationmode none
attr title "packet pushed, sum(packetBytes)"
scalar BgpNetwork.Duesseldorf.ppp[1].ppp.queue packetDropQueueOverflow:count 0
attr interpolationmode none
attr source packetDropReasonIsQueueOverflow(packetDropped)
attr title "packet drops: queue overflow, count"
scalar BgpNetwork.Duesseldorf.ppp[1].ppp.queue packetDropQueueOverflow:sum(packetBytes) 0
attr interpolationmode none
attr source packetDropReasonIsQueueOverflow(packetDropped)
attr title "packet drops: queue overflow, sum(packetBytes)"
scalar BgpNetwork.Duesseldorf.ppp[1].ppp.queue packetRemoved:count 0
attr interpolationmode none
attr title "packets removed, count"
scalar BgpNetwork.Duesseldorf.ppp[1].ppp.queue packetRemoved:sum(packetBytes) 0
attr interpolationmode none
attr title "packets removed, sum(packetBytes)"
scalar BgpNetwork.Duesseldorf.ppp[1].ppp transmissionState:timeavg 4.4e-07
attr interpolationmode sample-hold
attr source transmissionStateChanged
attr title "tx state, timeavg"
scalar BgpNetwork.Duesseldorf.ppp[1].ppp rxPkOk:count 7
attr interpolationmode none
attr source rxPkOk
attr title "packets received OK, count"
scalar BgpNetwork.Duesseldorf.ppp[1].ppp rxPkOk:sum(packetBytes) 3.8e+02
attr interpolationmode none
attr source rxPkOk
attr title "packets received OK, sum(packetBytes)"
scalar BgpNetwork.Duesseldorf.ppp[1].ppp txPk:count 6
attr interpolationmode none
attr source packetSentToLower
attr title "packets transmitted, count"
scalar BgpNetwork.Duesseldorf.ppp[1].ppp txPk:sum(packetBytes) 3.4e+02
attr interpolationmode none
attr source packetSentToLower
attr title "packets transmitted, sum(packetBytes)"
scalar BgpNetwork.Duesseldorf.ppp[1].ppp rcvdPkFromHl:count 6
attr interpolationmode none
attr source packetReceivedFromUpper
attr title "packets received from higher layer, count"
scalar BgpNetwork.Duesseldorf.ppp[1].ppp rcvdPkFromHl:sum(packetBytes) 3e+02
attr interpolationmode none
attr source packetReceivedFromUpper
attr title "packets received from higher layer, sum(packetBytes)"
scalar BgpNetwork.Duesseldorf.ppp[1].ppp passedUpPk:count 7
attr interpolationmode none
attr source packetSentToUpper
attr title "packets passed to higher layer, count"
scalar BgpNetwork.Duesseldorf.ppp[1].ppp passedUpPk:sum(packetBytes) 3.3e+02
attr interpolationmode none
attr source packetSentToUpper
attr title "packets passed to higher layer, sum(packetBytes)"
scalar BgpNetwork.Duesseldorf.ppp[1].ppp packetDropIncorrectlyReceived:count 0
attr interpolationmode none
attr source packetDropReasonIsIncorrectlyReceived(packetDropped)
attr title "packet drop: incorrectly received, count"
scalar BgpNetwork.Duesseldorf.ppp[1].ppp packetDropIncorrectlyReceived:sum(packetBytes) 0
attr interpolationmode none
attr source packetDropReasonIsIncorrectlyReceived(packetDropped)
attr title "packet drop: incorrectly received, sum(packetBytes)"
scalar BgpNetwork.Duesseldorf.ppp[1].ppp packetDropInterfaceDown:count 0
attr interpolationmode none
attr source packetDropReasonIsInterfaceDown(packetDropped)
attr title "packet drop: interface down, count"
scalar BgpNetwork.Duesseldorf.ppp[1].ppp packetDropInterfaceDown:sum(packetBytes) 0
attr interpolationmode none
attr source packetDropReasonIsInterfaceDown(packetDropped)
attr title "packet drop: interface down, sum(packetBytes)"
scalar BgpNetwork.Duesseldorf.ppp[2].ppp.queue packetPopped:count 7
attr interpolationmode none
attr title "packet popped, count"
scalar BgpNetwork.Duesseldorf.ppp[2].ppp.queue packetPopped:sum(packetBytes) 3.3e+02
attr interpolationmode none
attr title "packet popped, sum(packetBytes)"
statistic BgpNetwork.Duesseldorf.ppp[2].ppp.queue queueingTime:histogram
field count 7
field mean 5.4e-07
field stddev 1.4e-06
field min 0
field max 3.8e-06
field sum 3.8e-06
field sqrsum 1.4e-11
attr interpolationmode none
attr source queueingTime(packetPopped)
attr title "queueing times, histogram"
attr unit s
bin	-inf	0
bin	0	6
bin	1e-07	0
bin	2e-07	0
bin	3e-07	0
bin	4e-07	0
bin	5e-07	0
bin	6e-07	0
bin	7e-07	0
bin	8e-07	0
bin	9e-07	0
bin	1e-06	0
bin	1.1e-06	0
bin	1.2e-06	0
bin	1.3e-06	0
bin	1.4e-06	0
bin	1.5e-06	0
bin	1.6e-06	0
bin	1.7e-06	0
bin	1.8e-06	0
bin	1.9e-06	0
bin	2e-06	0
bin	2.1e-06	0
bin	2.2e-06	0
bin	2.3e-06	0
bin	2.4e-06	0
bin	2.5e-06	0
bin	2.6e-06	0
bin	2.7e-06	0
bin	2.8e-06	0
bin	2.9e-06	0
bin	3e-06	0
bin	3.1e-06	0
bin	3.2e-06	0
bin	3.3e-06	0
bin	3.4e-06	0
bin	3.5e-06	0
bin	3.6e-06	0
bin	3.7e-06	1
bin	3.8e-06	0
bin	3.9e-06	0
bin	4e-06	0
bin	4.1e-06	0
bin	4.2e-06	0
bin	4.3e-06	0
bin	4.4e-06	0
bin	4.5e-06	0
bin	4.6e-06	0
bin	4.7e-06	0
scalar BgpNetwork.Duesseldorf.ppp[2].ppp.queue queueLength:max 1
attr interpolationmode sample-hold
attr source "count(packetPushed) - count(packetPopped) - count(packetRemoved) - count(packetDropped)"
attr title "queue length, max"
scalar BgpNetwork.Duesseldorf.ppp[2].ppp.queue queueLength:timeavg 6.8e-08
attr interpolationmode sample-hold
attr source "count(packetPushed) - count(packetPopped) - count(packetRemoved) - count(packetDropped)"
attr title "queue length, timeavg"
scalar BgpNetwork.Duesseldorf.ppp[2].ppp.queue packetPushed:count 7
attr interpolationmode none
attr title "packet pushed, count"
scalar BgpNetwork.Duesseldorf.ppp[2].ppp.queue packetPushed:sum(packetBytes) 3.3e+02
attr interpolationmode none
attr title "packet pushed, sum(packetBytes)"
scalar BgpNetwork.Duesseldorf.ppp[2].ppp.queue packetDropQueueOverflow:count 0
attr interpolationmode none
attr source packetDropReasonIsQueueOverflow(packetDropped)
attr title "packet drops: queue overflow, count"
scalar BgpNetwork.Duesseldorf.ppp[2].ppp.queue packetDropQueueOverflow:sum(packetBytes) 0
attr interpolationmode none
attr source packetDropReasonIsQueueOverflow(packetDropped)
attr title "packet drops: queue overflow, sum(packetBytes)"
scalar BgpNetwork.Duesseldorf.ppp[2].ppp.queue packetRemoved:count 0
attr interpolationmode none
attr title "packets removed, count"
scalar BgpNetwork.Duesseldorf.ppp[2].ppp.queue packetRemoved:sum(packetBytes) 0
attr interpolationmode none
attr title "packets removed, sum(packetBytes)"
scalar BgpNetwork.Duesseldorf.ppp[2].ppp transmissionState:timeavg 4.9e-07
attr interpolationmode sample-hold
attr source transmissionStateChanged
attr title "tx state, timeavg"
scalar BgpNetwork.Duesseldorf.ppp[2].ppp rxPkOk:count 6
attr interpolationmode none
attr source rxPkOk
attr title "packets received OK, count"
scalar BgpNetwork.Duesseldorf.ppp[2].ppp rxPkOk:sum(packetBytes) 3.4e+02
attr interpolationmode none
attr source rxPkOk
attr title "packets received OK, sum(packetBytes)"
scalar BgpNetwork.Duesseldorf.ppp[2].ppp txPk:count 7
attr interpolationmode none
attr source packetSentToLower
attr title "packets transmitted, count"
scalar BgpNetwork.Duesseldorf.ppp[2].ppp txPk:sum(packetBytes) 3.8e+02
attr interpolationmode none
attr source packetSentToLower
attr title "packets transmitted, sum(packetBytes)"
scalar BgpNetwork.Duesseldorf.ppp[2].ppp rcvdPkFromHl:count 7
attr interpolationmode none
attr source packetReceivedFromUpper
attr title "packets received from higher layer, count"
scalar BgpNetwork.Duesseldorf.ppp[2].ppp rcvdPkFromHl:sum(packetBytes) 3.3e+02
attr interpolationmode none
attr source packetReceivedFromUpper
attr title "packets received from higher layer, sum(packetBytes)"
scalar BgpNetwork.Duesseldorf.ppp[2].ppp passedUpPk:count 6
attr interpolationmode none
[...]
attr interpolationmode none
attr source packetSentToUpper
attr title "packets passed to higher layer, sum(packetBytes)"
scalar BgpNetwork.Tallin.ppp[1].ppp packetDropIncorrectlyReceived:count 0
attr interpolationmode none
attr source packetDropReasonIsIncorrectlyReceived(packetDropped)
attr title "packet drop: incorrectly received, count"
scalar BgpNetwork.Tallin.ppp[1].ppp packetDropIncorrectlyReceived:sum(packetBytes) 0
attr interpolationmode none
attr source packetDropReasonIsIncorrectlyReceived(packetDropped)
attr title "packet drop: incorrectly received, sum(packetBytes)"
scalar BgpNetwork.Tallin.ppp[1].ppp packetDropInterfaceDown:count 0
attr interpolationmode none
attr source packetDropReasonIsInterfaceDown(packetDropped)
attr title "packet drop: interface down, count"
scalar BgpNetwork.Tallin.ppp[1].ppp packetDropInterfaceDown:sum(packetBytes) 0
attr interpolationmode none
attr source packetDropReasonIsInterfaceDown(packetDropped)
attr title "packet drop: interface down, sum(packetBytes)"
scalar BgpNetwork.Tallin.ppp[2].ppp.queue packetPopped:count 6
attr interpolationmode none
attr title "packet popped, count"
scalar BgpNetwork.Tallin.ppp[2].ppp.queue packetPopped:sum(packetBytes) 3e+02
attr interpolationmode none
attr title "packet popped, sum(packetBytes)"
statistic BgpNetwork.Tallin.ppp[2].ppp.queue queueingTime:histogram
field count 6
field mean 0
field stddev 0
field min 0
field max 0
field sum 0
field sqrsum 0
attr interpolationmode none
attr source queueingTime(packetPopped)
attr title "queueing times, histogram"
attr unit s
bin	-inf	0
bin	-0.5	0
bin	-0.48	0
bin	-0.46	0
bin	-0.44	0
bin	-0.42	0
bin	-0.4	0
bin	-0.38	0
bin	-0.36	0
bin	-0.34	0
bin	-0.32	0
bin	-0.3	0
bin	-0.28	0
bin	-0.26	0
bin	-0.24	0
bin	-0.22	0
bin	-0.2	0
bin	-0.18	0
bin	-0.16	0
bin	-0.14	0
bin	-0.12	0
bin	-0.1	0
bin	-0.08	0
bin	-0.06	0
bin	-0.04	0
bin	-0.02	0
bin	0	6
bin	0.02	0
bin	0.04	0
bin	0.06	0
bin	0.08	0
bin	0.1	0
bin	0.12	0
bin	0.14	0
bin	0.16	0
bin	0.18	0
bin	0.2	0
bin	0.22	0
bin	0.24	0
bin	0.26	0
bin	0.28	0
bin	0.3	0
bin	0.32	0
bin	0.34	0
bin	0.36	0
bin	0.38	0
bin	0.4	0
bin	0.42	0
bin	0.44	0
bin	0.46	0
bin	0.48	0
bin	0.5	0
scalar BgpNetwork.Tallin.ppp[2].ppp.queue queueLength:max 1
attr interpolationmode sample-hold
attr source "count(packetPushed) - count(packetPopped) - count(packetRemoved) - count(packetDropped)"
attr title "queue length, max"
scalar BgpNetwork.Tallin.ppp[2].ppp.queue queueLength:timeavg 0
attr interpolationmode sample-hold
attr source "count(packetPushed) - count(packetPopped) - count(packetRemoved) - count(packetDropped)"
attr title "queue length, timeavg"
scalar BgpNetwork.Tallin.ppp[2].ppp.queue packetPushed:count 6
attr interpolationmode none
attr title "packet pushed, count"
scalar BgpNetwork.Tallin.ppp[2].ppp.queue packetPushed:sum(packetBytes) 3e+02
attr interpolationmode none
attr title "packet pushed, sum(packetBytes)"
scalar BgpNetwork.Tallin.ppp[2].ppp.queue packetDropQueueOverflow:count 0
attr interpolationmode none
attr source packetDropReasonIsQueueOverflow(packetDropped)
attr title "packet drops: queue overflow, count"
scalar BgpNetwork.Tallin.ppp[2].ppp.queue packetDropQueueOverflow:sum(packetBytes) 0
attr interpolationmode none
attr source packetDropReasonIsQueueOverflow(packetDropped)
attr title "packet drops: queue overflow, sum(packetBytes)"
scalar BgpNetwork.Tallin.ppp[2].ppp.queue packetRemoved:count 0
attr interpolationmode none
attr title "packets removed, count"
scalar BgpNetwork.Tallin.ppp[2].ppp.queue packetRemoved:sum(packetBytes) 0
attr interpolationmode none
attr title "packets removed, sum(packetBytes)"
scalar BgpNetwork.Tallin.ppp[2].ppp transmissionState:timeavg 4.4e-07
attr interpolationmode sample-hold
attr source transmissionStateChanged
attr title "tx state, timeavg"
scalar BgpNetwork.Tallin.ppp[2].ppp rxPkOk:count 7
attr interpolationmode none
attr source rxPkOk
attr title "packets received OK, count"
scalar BgpNetwork.Tallin.ppp[2].ppp rxPkOk:sum(packetBytes) 3.8e+02
attr interpolationmode none
attr source rxPkOk
attr title "packets received OK, sum(packetBytes)"
scalar BgpNetwork.Tallin.ppp[2].ppp txPk:count 6
attr interpolationmode none
attr source packetSentToLower
attr title "packets transmitted, count"
scalar BgpNetwork.Tallin.ppp[2].ppp txPk:sum(packetBytes) 3.4e+02
attr interpolationmode none
attr source packetSentToLower
attr title "packets transmitted, sum(packetBytes)"
scalar BgpNetwork.Tallin.ppp[2].ppp rcvdPkFromHl:count 6
attr interpolationmode none
attr source packetReceivedFromUpper
attr title "packets received from higher layer, count"
scalar BgpNetwork.Tallin.ppp[2].ppp rcvdPkFromHl:sum(packetBytes) 3e+02
attr interpolationmode none
attr source packetReceivedFromUpper
attr title "packets received from higher layer, sum(packetBytes)"
scalar BgpNetwork.Tallin.ppp[2].ppp passedUpPk:count 7
attr interpolationmode none
attr source packetSentToUpper
attr title "packets passed to higher layer, count"
scalar BgpNetwork.Tallin.ppp[2].ppp passedUpPk:sum(packetBytes) 3.3e+02
attr interpolationmode none
attr source packetSentToUpper
attr title "packets passed to higher layer, sum(packetBytes)"
scalar BgpNetwork.Tallin.ppp[2].ppp packetDropIncorrectlyReceived:count 0
attr interpolationmode none
attr source packetDropReasonIsIncorrectlyReceived(packetDropped)
attr title "packet drop: incorrectly received, count"
scalar BgpNetwork.Tallin.ppp[2].ppp packetDropIncorrectlyReceived:sum(packetBytes) 0
attr interpolationmode none
attr source packetDropReasonIsIncorrectlyReceived(packetDropped)
attr title "packet drop: incorrectly received, sum(packetBytes)"
scalar BgpNetwork.Tallin.ppp[2].ppp packetDropInterfaceDown:count 0
attr interpolationmode none
attr source packetDropReasonIsInterfaceDown(packetDropped)
attr title "packet drop: interface down, count"
scalar BgpNetwork.Tallin.ppp[2].ppp packetDropInterfaceDown:sum(packetBytes) 0
attr interpolationmode none
attr source packetDropReasonIsInterfaceDown(packetDropped)
attr title "packet drop: interface down, sum(packetBytes)"
scalar BgpNetwork.helsinki.bgp OPENMsgSent 2
scalar BgpNetwork.helsinki.bgp OPENMsgRecv 2
scalar BgpNetwork.helsinki.bgp KeepAliveMsgSent 2
scalar BgpNetwork.helsinki.bgp KeepAliveMsgRcv 2
scalar BgpNetwork.helsinki.bgp UpdateMsgSent 0
scalar BgpNetwork.helsinki.bgp UpdateMsgRcv 0
scalar BgpNetwork.helsinki.ipv4.ip packetDropAddressResolutionFailed:count 0
attr interpolationmode none
attr source packetDropReasonIsAddressResolutionFailed(packetDropped)
attr title "packet drop: address resolution failed, count"
scalar BgpNetwork.helsinki.ipv4.ip packetDropAddressResolutionFailed:sum(packetBytes) 0
attr interpolationmode none
attr source packetDropReasonIsAddressResolutionFailed(packetDropped)
attr title "packet drop: address resolution failed, sum(packetBytes)"
scalar BgpNetwork.helsinki.ipv4.ip packetDropHopLimitReached:count 0
attr interpolationmode none
attr source packetDropReasonIsHopLimitReached(packetDropped)
attr title "packet drop: hop limit reached, count"
scalar BgpNetwork.helsinki.ipv4.ip packetDropHopLimitReached:sum(packetBytes) 0
attr interpolationmode none
attr source packetDropReasonIsHopLimitReached(packetDropped)
attr title "packet drop: hop limit reached, sum(packetBytes)"
scalar BgpNetwork.helsinki.ipv4.ip packetDropForwardingDisabled:count 0
attr interpolationmode none
attr source packetDropReasonIsForwardingDisabled(packetDropped)
attr title "packet drop: forwarding disabled, count"
scalar BgpNetwork.helsinki.ipv4.ip packetDropForwardingDisabled:sum(packetBytes) 0
attr interpolationmode none
attr source packetDropReasonIsForwardingDisabled(packetDropped)
attr title "packet drop: forwarding disabled, sum(packetBytes)"
scalar BgpNetwork.helsinki.ipv4.ip packetDropNoInterfaceFound:count 0
attr interpolationmode none
attr source packetDropReasonIsNoInterfaceFound(packetDropped)
attr title "packet drop: no interface found, count"
scalar BgpNetwork.helsinki.ipv4.ip packetDropNoInterfaceFound:sum(packetBytes) 0
attr interpolationmode none
attr source packetDropReasonIsNoInterfaceFound(packetDropped)
attr title "packet drop: no interface found, sum(packetBytes)"
scalar BgpNetwork.helsinki.ipv4.ip packetDropNoRouteFound:count 0
attr interpolationmode none
attr source packetDropReasonIsNoRouteFound(packetDropped)
attr title "packet drop: no route found, count"
scalar BgpNetwork.helsinki.ipv4.ip packetDropNoRouteFound:sum(packetBytes) 0
attr interpolationmode none
attr source packetDropReasonIsNoRouteFound(packetDropped)
attr title "packet drop: no route found, sum(packetBytes)"
scalar BgpNetwork.helsinki.ipv4.ip packetDropUndefined:count 0
attr interpolationmode none
attr source packetDropReasonIsUndefined(packetDropped)
attr title "packet drop: undefined, count"
scalar BgpNetwork.helsinki.ipv4.ip packetDropUndefined:sum(packetBytes) 0
attr interpolationmode none
attr source packetDropReasonIsUndefined(packetDropped)
attr title "packet drop: undefined, sum(packetBytes)"
scalar BgpNetwork.helsinki.ipv4.arp arpResolutionFailed:count 0
attr title "ARP failed resolutions, count"
scalar BgpNetwork.helsinki.ipv4.arp arpResolutionCompleted:count 0
attr title "ARP completed resolutions, count"
scalar BgpNetwork.helsinki.ipv4.arp arpResolutionInitiated:count 0
attr title "ARP initiated resolutions, count"
scalar BgpNetwork.helsinki.ipv4.arp arpReplySent:count 0
attr source arpReplySent
attr title "ARP replies sent, count"
scalar BgpNetwork.helsinki.ipv4.arp arpReplySent:sum(packetBytes) 0
attr source arpReplySent
attr title "ARP replies sent, sum(packetBytes)"
scalar BgpNetwork.helsinki.ipv4.arp arpRequestSent:count 0
attr source arpRequestSent
attr title "ARP request sent, count"
scalar BgpNetwork.helsinki.ipv4.arp arpRequestSent:sum(packetBytes) 0
attr source arpRequestSent
attr title "ARP request sent, sum(packetBytes)"
scalar BgpNetwork.helsinki.ppp[0].ppp.queue packetPopped:count 6
attr interpolationmode none
attr title "packet popped, count"
scalar BgpNetwork.helsinki.ppp[0].ppp.queue packetPopped:sum(packetBytes) 3e+02
attr interpolationmode none
attr title "packet popped, sum(packetBytes)"
statistic BgpNetwork.helsinki.ppp[0].ppp.queue queueingTime:histogram
field count 6
field mean 0
field stddev 0
field min 0
field max 0
field sum 0
field sqrsum 0
attr interpolationmode none
attr source queueingTime(packetPopped)
attr title "queueing times, histogram"
attr unit s
bin	-inf	0
bin	-0.5	0
bin	-0.48	0
bin	-0.46	0
bin	-0.44	0
bin	-0.42	0
bin	-0.4	0
bin	-0.38	0
bin	-0.36	0
bin	-0.34	0
bin	-0.32	0
bin	-0.3	0
bin	-0.28	0
bin	-0.26	0
bin	-0.24	0
bin	-0.22	0
bin	-0.2	0
bin	-0.18	0
bin	-0.16	0
bin	-0.14	0
bin	-0.12	0
bin	-0.1	0
bin	-0.08	0
bin	-0.06	0
bin	-0.04	0
bin	-0.02	0
bin	0	6
bin	0.02	0
bin	0.04	0
bin	0.06	0
bin	0.08	0
bin	0.1	0
bin	0.12	0
bin	0.14	0
bin	0.16	0
bin	0.18	0
bin	0.2	0
bin	0.22	0
bin	0.24	0
bin	0.26	0
bin	0.28	0
bin	0.3	0
bin	0.32	0
bin	0.34	0
bin	0.36	0
bin	0.38	0
bin	0.4	0
bin	0.42	0
bin	0.44	0
bin	0.46	0
bin	0.48	0
bin	0.5	0
scalar BgpNetwork.helsinki.ppp[0].ppp.queue queueLength:max 1
attr interpolationmode sample-hold
attr source "count(packetPushed) - count(packetPopped) - count(packetRemoved) - count(packetDropped)"
attr title "queue length, max"
scalar BgpNetwork.helsinki.ppp[0].ppp.queue queueLength:timeavg 0
attr interpolationmode sample-hold
attr source "count(packetPushed) - count(packetPopped) - count(packetRemoved) - count(packetDropped)"
attr title "queue length, timeavg"
scalar BgpNetwork.helsinki.ppp[0].ppp.queue packetPushed:count 6
attr interpolationmode none
attr title "packet pushed, count"
scalar BgpNetwork.helsinki.ppp[0].ppp.queue packetPushed:sum(packetBytes) 3e+02
attr interpolationmode none
attr title "packet pushed, sum(packetBytes)"
scalar BgpNetwork.helsinki.ppp[0].ppp.queue packetDropQueueOverflow:count 0
attr interpolationmode none
attr source packetDropReasonIsQueueOverflow(packetDropped)
attr title "packet drops: queue overflow, count"
scalar BgpNetwork.helsinki.ppp[0].ppp.queue packetDropQueueOverflow:sum(packetBytes) 0
attr interpolationmode none
attr source packetDropReasonIsQueueOverflow(packetDropped)
attr title "packet drops: queue overflow, sum(packetBytes)"
scalar BgpNetwork.helsinki.ppp[0].ppp.queue packetRemoved:count 0
attr interpolationmode none
attr title "packets removed, count"
scalar BgpNetwork.helsinki.ppp[0].ppp.queue packetRemoved:sum(packetBytes) 0
attr interpolationmode none
attr title "packets removed, sum(packetBytes)"
scalar BgpNetwork.helsinki.ppp[0].ppp transmissionState:timeavg 4.4e-07
attr interpolationmode sample-hold
attr source transmissionStateChanged
attr title "tx state, timeavg"
scalar BgpNetwork.helsinki.ppp[0].ppp rxPkOk:count 7
attr interpolationmode none
attr source rxPkOk
attr title "packets received OK, count"
scalar BgpNetwork.helsinki.ppp[0].ppp rxPkOk:sum(packetBytes) 3.8e+02
attr interpolationmode none
attr source rxPkOk
attr title "packets received OK, sum(packetBytes)"
scalar BgpNetwork.helsinki.ppp[0].ppp txPk:count 6
attr interpolationmode none
attr source packetSentToLower
attr title "packets transmitted, count"
scalar BgpNetwork.helsinki.ppp[0].ppp txPk:sum(packetBytes) 3.4e+02
attr interpolationmode none
attr source packetSentToLower
attr title "packets transmitted, sum(packetBytes)"
scalar BgpNetwork.helsinki.ppp[0].ppp rcvdPkFromHl:count 6
attr interpolationmode none
attr source packetReceivedFromUpper
attr title "packets received from higher layer, count"
scalar BgpNetwork.helsinki.ppp[0].ppp rcvdPkFromHl:sum(packetBytes) 3e+02
attr interpolationmode none
attr source packetReceivedFromUpper
attr title "packets received from higher layer, sum(packetBytes)"
scalar BgpNetwork.helsinki.ppp[0].ppp passedUpPk:count 7
attr interpolationmode none
attr source packetSentToUpper
attr title "packets passed to higher layer, count"
scalar BgpNetwork.helsinki.ppp[0].ppp passedUpPk:sum(packetBytes) 3.3e+02
attr interpolationmode none
attr source packetSentToUpper
attr title "packets passed to higher layer, sum(packetBytes)"
scalar BgpNetwork.helsinki.ppp[0].ppp packetDropIncorrectlyReceived:count 0
attr interpolationmode none
attr source packetDropReasonIsIncorrectlyReceived(packetDropped)
attr title "packet drop: incorrectly received, count"
scalar BgpNetwork.helsinki.ppp[0].ppp packetDropIncorrectlyReceived:sum(packetBytes) 0
attr interpolationmode none
attr source packetDropReasonIsIncorrectlyReceived(packetDropped)
attr title "packet drop: incorrectly received, sum(packetBytes)"
scalar BgpNetwork.helsinki.ppp[0].ppp packetDropInterfaceDown:count 0
attr interpolationmode none
attr source packetDropReasonIsInterfaceDown(packetDropped)
attr title "packet drop: interface down, count"
scalar BgpNetwork.helsinki.ppp[0].ppp packetDropInterfaceDown:sum(packetBytes) 0
attr interpolationmode none
attr source packetDropReasonIsInterfaceDown(packetDropped)
attr title "packet drop: interface down, sum(packetBytes)"
scalar BgpNetwork.helsinki.ppp[1].ppp.queue packetPopped:count 6
attr interpolationmode none
attr title "packet popped, count"
scalar BgpNetwork.helsinki.ppp[1].ppp.queue packetPopped:sum(packetBytes) 3e+02
attr interpolationmode none
attr title "packet popped, sum(packetBytes)"
statistic BgpNetwork.helsinki.ppp[1].ppp.queue queueingTime:histogram
field count 6
field mean 0
field stddev 0
field min 0
field max 0
field sum 0
field sqrsum 0
attr interpolationmode none
attr source queueingTime(packetPopped)
attr title "queueing times, histogram"
attr unit s
bin	-inf	0
bin	-0.5	0
bin	-0.48	0
bin	-0.46	0
bin	-0.44	0
bin	-0.42	0
bin	-0.4	0
bin	-0.38	0
bin	-0.36	0
bin	-0.34	0
bin	-0.32	0
bin	-0.3	0
bin	-0.28	0
bin	-0.26	0
bin	-0.24	0
bin	-0.22	0
bin	-0.2	0
bin	-0.18	0
bin	-0.16	0
bin	-0.14	0
bin	-0.12	0
bin	-0.1	0
bin	-0.08	0
bin	-0.06	0
bin	-0.04	0
bin	-0.02	0
bin	0	6
bin	0.02	0
bin	0.04	0
bin	0.06	0
bin	0.08	0
bin	0.1	0
bin	0.12	0
bin	0.14	0
bin	0.16	0
bin	0.18	0
bin	0.2	0
bin	0.22	0
bin	0.24	0
bin	0.26	0
bin	0.28	0
bin	0.3	0
bin	0.32	0
bin	0.34	0
bin	0.36	0
bin	0.38	0
bin	0.4	0
bin	0.42	0
bin	0.44	0
bin	0.46	0
bin	0.48	0
bin	0.5	0
scalar BgpNetwork.helsinki.ppp[1].ppp.queue queueLength:max 1
attr interpolationmode sample-hold
attr source "count(packetPushed) - count(packetPopped) - count(packetRemoved) - count(packetDropped)"
attr title "queue length, max"
scalar BgpNetwork.helsinki.ppp[1].ppp.queue queueLength:timeavg 0
attr interpolationmode sample-hold
attr source "count(packetPushed) - count(packetPopped) - count(packetRemoved) - count(packetDropped)"
attr title "queue length, timeavg"
scalar BgpNetwork.helsinki.ppp[1].ppp.queue packetPushed:count 6
attr interpolationmode none
attr title "packet pushed, count"
scalar BgpNetwork.helsinki.ppp[1].ppp.queue packetPushed:sum(packetBytes) 3e+02
attr interpolationmode none
attr title "packet pushed, sum(packetBytes)"
scalar BgpNetwork.helsinki.ppp[1].ppp.queue packetDropQueueOverflow:count 0
attr interpolationmode none
attr source packetDropReasonIsQueueOverflow(packetDropped)
attr title "packet drops: queue overflow, count"
scalar BgpNetwork.helsinki.ppp[1].ppp.queue packetDropQueueOverflow:sum(packetBytes) 0
attr interpolationmode none
attr source packetDropReasonIsQueueOverflow(packetDropped)
attr title "packet drops: queue overflow, sum(packetBytes)"
scalar BgpNetwork.helsinki.ppp[1].ppp.queue packetRemoved:count 0
attr interpolationmode none
attr title "packets removed, count"
scalar BgpNetwork.helsinki.ppp[1].ppp.queue packetRemoved:sum(packetBytes) 0
attr interpolationmode none
attr title "packets removed, sum(packetBytes)"
scalar BgpNetwork.helsinki.ppp[1].ppp transmissionState:timeavg 4.4e-07
attr interpolationmode sample-hold
attr source transmissionStateChanged
attr title "tx state, timeavg"
scalar BgpNetwork.helsinki.ppp[1].ppp rxPkOk:count 7
attr interpolationmode none
attr source rxPkOk
attr title "packets received OK, count"
scalar BgpNetwork.helsinki.ppp[1].ppp rxPkOk:sum(packetBytes) 3.8e+02
attr interpolationmode none
attr source rxPkOk
attr title "packets received OK, sum(packetBytes)"
scalar BgpNetwork.helsinki.ppp[1].ppp txPk:count 6
attr interpolationmode none
attr source packetSentToLower
attr title "packets transmitted, count"
scalar BgpNetwork.helsinki.ppp[1].ppp txPk:sum(packetBytes) 3.4e+02
attr interpolationmode none
attr source packetSentToLower
attr title "packets transmitted, sum(packetBytes)"
scalar BgpNetwork.helsinki.ppp[1].ppp rcvdPkFromHl:count 6
attr interpolationmode none
attr source packetReceivedFromUpper
attr title "packets received from higher layer, count"
scalar BgpNetwork.helsinki.ppp[1].ppp rcvdPkFromHl:sum(packetBytes) 3e+02
attr interpolationmode none
attr source packetReceivedFromUpper
attr title "packets received from higher layer, sum(packetBytes)"
scalar BgpNetwork.helsinki.ppp[1].ppp passedUpPk:count 7
attr interpolationmode none
attr source packetSentToUpper
attr title "packets passed to higher layer, count"
scalar BgpNetwork.helsinki.ppp[1].ppp passedUpPk:sum(packetBytes) 3.3e+02
attr interpolationmode none
attr source packetSentToUpper
attr title "packets passed to higher layer, sum(packetBytes)"
scalar BgpNetwork.helsinki.ppp[1].ppp packetDropIncorrectlyReceived:count 0
attr interpolationmode none
attr source packetDropReasonIsIncorrectlyReceived(packetDropped)
attr title "packet drop: incorrectly received, count"
scalar BgpNetwork.helsinki.ppp[1].ppp packetDropIncorrectlyReceived:sum(packetBytes) 0
attr interpolationmode none
attr source packetDropReasonIsIncorrectlyReceived(packetDropped)
attr title "packet drop: incorrectly received, sum(packetBytes)"
scalar BgpNetwork.helsinki.ppp[1].ppp packetDropInterfaceDown:count 0
attr interpolationmode none
attr source packetDropReasonIsInterfaceDown(packetDropped)
attr title "packet drop: interface down, count"
scalar BgpNetwork.helsinki.ppp[1].ppp packetDropInterfaceDown:sum(packetBytes) 0
attr interpolationmode none
attr source packetDropReasonIsInterfaceDown(packetDropped)
attr title "packet drop: interface down, sum(packetBytes)"

